Program Version,EnergyPlus, Version 24.1.0-9d7789a3ac, YMD=2026.01.18 13:13,
   ************* Beginning Zone Sizing Calculations
   ** Warning ** Weather file location will be used rather than entered (IDF) Location object.
   **   ~~~   ** ..Location object=CHICAGO_IL_USA TMY2-94846
   **   ~~~   ** ..Weather File Location=Rabat-Sale.AP RK MAR SRC-TMYx WMO#=601350
   **   ~~~   ** ..due to location differences, Latitude difference=[7.73] degrees, Longitude difference=[81.00] degrees.
   **   ~~~   ** ..Time Zone difference=[7.0] hour(s), Elevation difference=[55.74] percent, [105.90] meters.
   ** Severe  ** Data Exchange API: Index error in getVariableValue; received handle: -1
   **   ~~~   ** The getVariableValue function will return 0 for now to allow the plugin to finish, then EnergyPlus will abort
   ** Severe  ** Data Exchange API: Index error in getVariableValue; received handle: -1
   **   ~~~   ** The getVariableValue function will return 0 for now to allow the plugin to finish, then EnergyPlus will abort
   ** Severe  ** Data Exchange API: Index error in getVariableValue; received handle: 22
   **   ~~~   ** The getVariableValue function will return 0 for now to allow the plugin to finish, then EnergyPlus will abort
   ** Severe  ** Data Exchange API: Index error in getVariableValue; received handle: 23
   **   ~~~   ** The getVariableValue function will return 0 for now to allow the plugin to finish, then EnergyPlus will abort
   ** Severe  ** Data Exchange API: Index error in getVariableValue; received handle: 27
   **   ~~~   ** The getVariableValue function will return 0 for now to allow the plugin to finish, then EnergyPlus will abort
   ** Severe  ** Data Exchange API: Index error in getVariableValue; received handle: 28
   **   ~~~   ** The getVariableValue function will return 0 for now to allow the plugin to finish, then EnergyPlus will abort
   ** Severe  ** Data Exchange API: Index error in getVariableValue; received handle: 32
   **   ~~~   ** The getVariableValue function will return 0 for now to allow the plugin to finish, then EnergyPlus will abort
   ** Severe  ** Data Exchange API: Index error in getVariableValue; received handle: 33
   **   ~~~   ** The getVariableValue function will return 0 for now to allow the plugin to finish, then EnergyPlus will abort
   ** Severe  ** Data Exchange API: Index error in getVariableValue; received handle: 37
   **   ~~~   ** The getVariableValue function will return 0 for now to allow the plugin to finish, then EnergyPlus will abort
   ** Severe  ** Data Exchange API: Index error in getVariableValue; received handle: 38
   **   ~~~   ** The getVariableValue function will return 0 for now to allow the plugin to finish, then EnergyPlus will abort
   ** Severe  ** Data Exchange API: Index error in getVariableValue; received handle: 42
   **   ~~~   ** The getVariableValue function will return 0 for now to allow the plugin to finish, then EnergyPlus will abort
   ** Severe  ** Data Exchange API: Index error in getVariableValue; received handle: 43
   **   ~~~   ** The getVariableValue function will return 0 for now to allow the plugin to finish, then EnergyPlus will abort
   ** Severe  ** Data Exchange API: index error in setActuatorValue; received handle: 413
   **   ~~~   ** The setActuatorValue function will return to allow the plugin to finish, then EnergyPlus will abort
   ** Severe  ** Data Exchange API: index error in setActuatorValue; received handle: 415
   **   ~~~   ** The setActuatorValue function will return to allow the plugin to finish, then EnergyPlus will abort
   ** Severe  ** Data Exchange API: index error in setActuatorValue; received handle: 417
   **   ~~~   ** The setActuatorValue function will return to allow the plugin to finish, then EnergyPlus will abort
   ** Severe  ** Data Exchange API: index error in setActuatorValue; received handle: 419
   **   ~~~   ** The setActuatorValue function will return to allow the plugin to finish, then EnergyPlus will abort
   ** Severe  ** Data Exchange API: index error in setActuatorValue; received handle: 421
   **   ~~~   ** The setActuatorValue function will return to allow the plugin to finish, then EnergyPlus will abort
   ** Severe  ** Data Exchange API: Index error in getVariableValue; received handle: -1
   **   ~~~   ** The getVariableValue function will return 0 for now to allow the plugin to finish, then EnergyPlus will abort
   ** Severe  ** Data Exchange API: Index error in getVariableValue; received handle: -1
   **   ~~~   ** The getVariableValue function will return 0 for now to allow the plugin to finish, then EnergyPlus will abort
   ** Severe  ** Data Exchange API: Index error in getVariableValue; received handle: -1
   **   ~~~   ** The getVariableValue function will return 0 for now to allow the plugin to finish, then EnergyPlus will abort
   ** Severe  ** Data Exchange API: Index error in getVariableValue; received handle: -1
   **   ~~~   ** The getVariableValue function will return 0 for now to allow the plugin to finish, then EnergyPlus will abort
   ** Severe  ** Data Exchange API: Index error in getVariableValue; received handle: -1
   **   ~~~   ** The getVariableValue function will return 0 for now to allow the plugin to finish, then EnergyPlus will abort
   ** Severe  ** Data Exchange API: Index error in getVariableValue; received handle: -1
   **   ~~~   ** The getVariableValue function will return 0 for now to allow the plugin to finish, then EnergyPlus will abort
   ** Severe  ** Data Exchange API: Index error in getVariableValue; received handle: -1
   **   ~~~   ** The getVariableValue function will return 0 for now to allow the plugin to finish, then EnergyPlus will abort
   ** Severe  ** Data Exchange API: Index error in getVariableValue; received handle: -1
   **   ~~~   ** The getVariableValue function will return 0 for now to allow the plugin to finish, then EnergyPlus will abort
   ** Severe  ** Data Exchange API: Index error in getVariableValue; received handle: -1
   **   ~~~   ** The getVariableValue function will return 0 for now to allow the plugin to finish, then EnergyPlus will abort
   ** Severe  ** Data Exchange API: Index error in getVariableValue; received handle: -1
   **   ~~~   ** The getVariableValue function will return 0 for now to allow the plugin to finish, then EnergyPlus will abort
   ** Severe  ** Data Exchange API: Index error in getVariableValue; received handle: -1
   **   ~~~   ** The getVariableValue function will return 0 for now to allow the plugin to finish, then EnergyPlus will abort
   ** Severe  ** Data Exchange API: Index error in getVariableValue; received handle: -1
   **   ~~~   ** The getVariableValue function will return 0 for now to allow the plugin to finish, then EnergyPlus will abort
   ** Severe  ** Data Exchange API: Index error in getVariableValue; received handle: -1
   **   ~~~   ** The getVariableValue function will return 0 for now to allow the plugin to finish, then EnergyPlus will abort
   ** Severe  ** Data Exchange API: Index error in getVariableValue; received handle: -1
   **   ~~~   ** The getVariableValue function will return 0 for now to allow the plugin to finish, then EnergyPlus will abort
   ** Severe  ** Data Exchange API: Index error in getVariableValue; received handle: -1
   **   ~~~   ** The getVariableValue function will return 0 for now to allow the plugin to finish, then EnergyPlus will abort
   ** Severe  ** Data Exchange API: Index error in getVariableValue; received handle: -1
   **   ~~~   ** The getVariableValue function will return 0 for now to allow the plugin to finish, then EnergyPlus will abort
   ** Severe  ** Data Exchange API: Index error in getVariableValue; received handle: -1
   **   ~~~   ** The getVariableValue function will return 0 for now to allow the plugin to finish, then EnergyPlus will abort
   ** Severe  ** Data Exchange API: Index error in getVariableValue; received handle: -1
   **   ~~~   ** The getVariableValue function will return 0 for now to allow the plugin to finish, then EnergyPlus will abort
   ** Severe  ** Data Exchange API: Index error in getVariableValue; received handle: -1
   **   ~~~   ** The getVariableValue function will return 0 for now to allow the plugin to finish, then EnergyPlus will abort
   ** Severe  ** Data Exchange API: Index error in getVariableValue; received handle: -1
   **   ~~~   ** The getVariableValue function will return 0 for now to allow the plugin to finish, then EnergyPlus will abort
   ** Severe  ** Data Exchange API: Index error in getVariableValue; received handle: -1
   **   ~~~   ** The getVariableValue function will return 0 for now to allow the plugin to finish, then EnergyPlus will abort
   ** Severe  ** Data Exchange API: Index error in getVariableValue; received handle: -1
   **   ~~~   ** The getVariableValue function will return 0 for now to allow the plugin to finish, then EnergyPlus will abort
   ** Severe  ** Data Exchange API: Index error in getVariableValue; received handle: -1
   **   ~~~   ** The getVariableValue function will return 0 for now to allow the plugin to finish, then EnergyPlus will abort
   ** Severe  ** Data Exchange API: Index error in getVariableValue; received handle: -1
   **   ~~~   ** The getVariableValue function will return 0 for now to allow the plugin to finish, then EnergyPlus will abort
   ** Severe  ** Data Exchange API: Index error in getVariableValue; received handle: -1
   **   ~~~   ** The getVariableValue function will return 0 for now to allow the plugin to finish, then EnergyPlus will abort
   ** Severe  ** Data Exchange API: Index error in getVariableValue; received handle: -1
   **   ~~~   ** The getVariableValue function will return 0 for now to allow the plugin to finish, then EnergyPlus will abort
   ** Severe  ** Data Exchange API: Index error in getVariableValue; received handle: -1
   **   ~~~   ** The getVariableValue function will return 0 for now to allow the plugin to finish, then EnergyPlus will abort
   ** Severe  ** Data Exchange API: Index error in getVariableValue; received handle: -1
   **   ~~~   ** The getVariableValue function will return 0 for now to allow the plugin to finish, then EnergyPlus will abort
   ** Severe  ** Data Exchange API: Index error in getVariableValue; received handle: -1
   **   ~~~   ** The getVariableValue function will return 0 for now to allow the plugin to finish, then EnergyPlus will abort
   ** Severe  ** Data Exchange API: Index error in getVariableValue; received handle: -1
   **   ~~~   ** The getVariableValue function will return 0 for now to allow the plugin to finish, then EnergyPlus will abort
   ** Severe  ** Data Exchange API: Index error in getVariableValue; received handle: -1
   **   ~~~   ** The getVariableValue function will return 0 for now to allow the plugin to finish, then EnergyPlus will abort
   ** Severe  ** Data Exchange API: Index error in getVariableValue; received handle: -1
   **   ~~~   ** The getVariableValue function will return 0 for now to allow the plugin to finish, then EnergyPlus will abort
   ** Severe  ** Data Exchange API: Index error in getVariableValue; received handle: -1
   **   ~~~   ** The getVariableValue function will return 0 for now to allow the plugin to finish, then EnergyPlus will abort
   ** Severe  ** Data Exchange API: Index error in getVariableValue; received handle: -1
   **   ~~~   ** The getVariableValue function will return 0 for now to allow the plugin to finish, then EnergyPlus will abort
   ** Severe  ** Data Exchange API: Index error in getVariableValue; received handle: -1
   **   ~~~   ** The getVariableValue function will return 0 for now to allow the plugin to finish, then EnergyPlus will abort
   ** Severe  ** Data Exchange API: Index error in getVariableValue; received handle: -1
   **   ~~~   ** The getVariableValue function will return 0 for now to allow the plugin to finish, then EnergyPlus will abort
   ** Severe  ** Data Exchange API: Index error in getVariableValue; received handle: -1
   **   ~~~   ** The getVariableValue function will return 0 for now to allow the plugin to finish, then EnergyPlus will abort
   ** Severe  ** Data Exchange API: Index error in getVariableValue; received handle: -1
   **   ~~~   ** The getVariableValue function will return 0 for now to allow the plugin to finish, then EnergyPlus will abort
   ** Severe  ** Data Exchange API: Index error in getVariableValue; received handle: -1
   **   ~~~   ** The getVariableValue function will return 0 for now to allow the plugin to finish, then EnergyPlus will abort
   ** Severe  ** Data Exchange API: Index error in getVariableValue; received handle: -1
   **   ~~~   ** The getVariableValue function will return 0 for now to allow the plugin to finish, then EnergyPlus will abort
   ** Severe  ** Data Exchange API: Index error in getVariableValue; received handle: -1
   **   ~~~   ** The getVariableValue function will return 0 for now to allow the plugin to finish, then EnergyPlus will abort
   ** Severe  ** Data Exchange API: Index error in getVariableValue; received handle: -1
   **   ~~~   ** The getVariableValue function will return 0 for now to allow the plugin to finish, then EnergyPlus will abort
   ** Severe  ** Data Exchange API: Index error in getVariableValue; received handle: -1
   **   ~~~   ** The getVariableValue function will return 0 for now to allow the plugin to finish, then EnergyPlus will abort
   ** Severe  ** Data Exchange API: Index error in getVariableValue; received handle: -1
   **   ~~~   ** The getVariableValue function will return 0 for now to allow the plugin to finish, then EnergyPlus will abort
   ** Severe  ** Data Exchange API: Index error in getVariableValue; received handle: -1
   **   ~~~   ** The getVariableValue function will return 0 for now to allow the plugin to finish, then EnergyPlus will abort
   ** Severe  ** Data Exchange API: Index error in getVariableValue; received handle: -1
   **   ~~~   ** The getVariableValue function will return 0 for now to allow the plugin to finish, then EnergyPlus will abort
   ** Severe  ** Data Exchange API: Index error in getVariableValue; received handle: -1
   **   ~~~   ** The getVariableValue function will return 0 for now to allow the plugin to finish, then EnergyPlus will abort
   ** Severe  ** Data Exchange API: Index error in getVariableValue; received handle: -1
   **   ~~~   ** The getVariableValue function will return 0 for now to allow the plugin to finish, then EnergyPlus will abort
   ** Severe  ** Data Exchange API: Index error in getVariableValue; received handle: -1
   **   ~~~   ** The getVariableValue function will return 0 for now to allow the plugin to finish, then EnergyPlus will abort
   ** Severe  ** Data Exchange API: Index error in getVariableValue; received handle: -1
   **   ~~~   ** The getVariableValue function will return 0 for now to allow the plugin to finish, then EnergyPlus will abort
   ** Severe  ** Data Exchange API: Index error in getVariableValue; received handle: -1
   **   ~~~   ** The getVariableValue function will return 0 for now to allow the plugin to finish, then EnergyPlus will abort
   ** Severe  ** Data Exchange API: Index error in getVariableValue; received handle: -1
   **   ~~~   ** The getVariableValue function will return 0 for now to allow the plugin to finish, then EnergyPlus will abort
   ** Severe  ** Data Exchange API: Index error in getVariableValue; received handle: -1
   **   ~~~   ** The getVariableValue function will return 0 for now to allow the plugin to finish, then EnergyPlus will abort
   ** Severe  ** Data Exchange API: Index error in getVariableValue; received handle: -1
   **   ~~~   ** The getVariableValue function will return 0 for now to allow the plugin to finish, then EnergyPlus will abort
   ** Severe  ** Data Exchange API: Index error in getVariableValue; received handle: -1
   **   ~~~   ** The getVariableValue function will return 0 for now to allow the plugin to finish, then EnergyPlus will abort
   ** Severe  ** Data Exchange API: Index error in getVariableValue; received handle: -1
   **   ~~~   ** The getVariableValue function will return 0 for now to allow the plugin to finish, then EnergyPlus will abort
   ** Severe  ** Data Exchange API: Index error in getVariableValue; received handle: -1
   **   ~~~   ** The getVariableValue function will return 0 for now to allow the plugin to finish, then EnergyPlus will abort
   ** Severe  ** Data Exchange API: Index error in getVariableValue; received handle: -1
   **   ~~~   ** The getVariableValue function will return 0 for now to allow the plugin to finish, then EnergyPlus will abort
   ** Severe  ** Data Exchange API: Index error in getVariableValue; received handle: -1
   **   ~~~   ** The getVariableValue function will return 0 for now to allow the plugin to finish, then EnergyPlus will abort
   ** Severe  ** Data Exchange API: Index error in getVariableValue; received handle: -1
   **   ~~~   ** The getVariableValue function will return 0 for now to allow the plugin to finish, then EnergyPlus will abort
   ** Severe  ** Data Exchange API: Index error in getVariableValue; received handle: -1
   **   ~~~   ** The getVariableValue function will return 0 for now to allow the plugin to finish, then EnergyPlus will abort
   ** Severe  ** Data Exchange API: Index error in getVariableValue; received handle: -1
   **   ~~~   ** The getVariableValue function will return 0 for now to allow the plugin to finish, then EnergyPlus will abort
   ** Severe  ** Data Exchange API: Index error in getVariableValue; received handle: -1
   **   ~~~   ** The getVariableValue function will return 0 for now to allow the plugin to finish, then EnergyPlus will abort
   ** Severe  ** Data Exchange API: Index error in getVariableValue; received handle: -1
   **   ~~~   ** The getVariableValue function will return 0 for now to allow the plugin to finish, then EnergyPlus will abort
   ** Severe  ** Data Exchange API: Index error in getVariableValue; received handle: -1
   **   ~~~   ** The getVariableValue function will return 0 for now to allow the plugin to finish, then EnergyPlus will abort
   ** Severe  ** Data Exchange API: Index error in getVariableValue; received handle: -1
   **   ~~~   ** The getVariableValue function will return 0 for now to allow the plugin to finish, then EnergyPlus will abort
   ** Severe  ** Data Exchange API: Index error in getVariableValue; received handle: -1
   **   ~~~   ** The getVariableValue function will return 0 for now to allow the plugin to finish, then EnergyPlus will abort
   ** Severe  ** Data Exchange API: Index error in getVariableValue; received handle: -1
   **   ~~~   ** The getVariableValue function will return 0 for now to allow the plugin to finish, then EnergyPlus will abort
   ** Severe  ** Data Exchange API: Index error in getVariableValue; received handle: -1
   **   ~~~   ** The getVariableValue function will return 0 for now to allow the plugin to finish, then EnergyPlus will abort
   ** Severe  ** Data Exchange API: Index error in getVariableValue; received handle: -1
   **   ~~~   ** The getVariableValue function will return 0 for now to allow the plugin to finish, then EnergyPlus will abort
   ** Severe  ** Data Exchange API: Index error in getVariableValue; received handle: -1
   **   ~~~   ** The getVariableValue function will return 0 for now to allow the plugin to finish, then EnergyPlus will abort
   ** Severe  ** Data Exchange API: Index error in getVariableValue; received handle: -1
   **   ~~~   ** The getVariableValue function will return 0 for now to allow the plugin to finish, then EnergyPlus will abort
   ** Severe  ** Data Exchange API: Index error in getVariableValue; received handle: -1
   **   ~~~   ** The getVariableValue function will return 0 for now to allow the plugin to finish, then EnergyPlus will abort
   ** Severe  ** Data Exchange API: Index error in getVariableValue; received handle: -1
   **   ~~~   ** The getVariableValue function will return 0 for now to allow the plugin to finish, then EnergyPlus will abort
   ** Severe  ** Data Exchange API: Index error in getVariableValue; received handle: -1
   **   ~~~   ** The getVariableValue function will return 0 for now to allow the plugin to finish, then EnergyPlus will abort
   ** Severe  ** Data Exchange API: Index error in getVariableValue; received handle: -1
   **   ~~~   ** The getVariableValue function will return 0 for now to allow the plugin to finish, then EnergyPlus will abort
   ** Severe  ** Data Exchange API: Index error in getVariableValue; received handle: -1
   **   ~~~   ** The getVariableValue function will return 0 for now to allow the plugin to finish, then EnergyPlus will abort
   ** Severe  ** Data Exchange API: Index error in getVariableValue; received handle: -1
   **   ~~~   ** The getVariableValue function will return 0 for now to allow the plugin to finish, then EnergyPlus will abort
   ** Severe  ** Data Exchange API: Index error in getVariableValue; received handle: -1
   **   ~~~   ** The getVariableValue function will return 0 for now to allow the plugin to finish, then EnergyPlus will abort
   ** Severe  ** Data Exchange API: Index error in getVariableValue; received handle: -1
   **   ~~~   ** The getVariableValue function will return 0 for now to allow the plugin to finish, then EnergyPlus will abort
   ** Severe  ** Data Exchange API: Index error in getVariableValue; received handle: -1
   **   ~~~   ** The getVariableValue function will return 0 for now to allow the plugin to finish, then EnergyPlus will abort
   ** Severe  ** Data Exchange API: Index error in getVariableValue; received handle: -1
   **   ~~~   ** The getVariableValue function will return 0 for now to allow the plugin to finish, then EnergyPlus will abort
   ** Severe  ** Data Exchange API: Index error in getVariableValue; received handle: -1
   **   ~~~   ** The getVariableValue function will return 0 for now to allow the plugin to finish, then EnergyPlus will abort
   ** Severe  ** Data Exchange API: Index error in getVariableValue; received handle: -1
   **   ~~~   ** The getVariableValue function will return 0 for now to allow the plugin to finish, then EnergyPlus will abort
   ** Severe  ** Data Exchange API: Index error in getVariableValue; received handle: -1
   **   ~~~   ** The getVariableValue function will return 0 for now to allow the plugin to finish, then EnergyPlus will abort
   ** Severe  ** Data Exchange API: Index error in getVariableValue; received handle: -1
   **   ~~~   ** The getVariableValue function will return 0 for now to allow the plugin to finish, then EnergyPlus will abort
   ** Severe  ** Data Exchange API: Index error in getVariableValue; received handle: -1
   **   ~~~   ** The getVariableValue function will return 0 for now to allow the plugin to finish, then EnergyPlus will abort
   ** Severe  ** Data Exchange API: Index error in getVariableValue; received handle: -1
   **   ~~~   ** The getVariableValue function will return 0 for now to allow the plugin to finish, then EnergyPlus will abort
   ** Severe  ** Data Exchange API: Index error in getVariableValue; received handle: -1
   **   ~~~   ** The getVariableValue function will return 0 for now to allow the plugin to finish, then EnergyPlus will abort
   ** Severe  ** Data Exchange API: Index error in getVariableValue; received handle: -1
   **   ~~~   ** The getVariableValue function will return 0 for now to allow the plugin to finish, then EnergyPlus will abort
   ** Severe  ** Data Exchange API: Index error in getVariableValue; received handle: -1
   **   ~~~   ** The getVariableValue function will return 0 for now to allow the plugin to finish, then EnergyPlus will abort
   ** Severe  ** Data Exchange API: Index error in getVariableValue; received handle: -1
   **   ~~~   ** The getVariableValue function will return 0 for now to allow the plugin to finish, then EnergyPlus will abort
   ** Severe  ** Data Exchange API: Index error in getVariableValue; received handle: -1
   **   ~~~   ** The getVariableValue function will return 0 for now to allow the plugin to finish, then EnergyPlus will abort
   ** Severe  ** Data Exchange API: Index error in getVariableValue; received handle: -1
   **   ~~~   ** The getVariableValue function will return 0 for now to allow the plugin to finish, then EnergyPlus will abort
   ** Severe  ** Data Exchange API: Index error in getVariableValue; received handle: -1
   **   ~~~   ** The getVariableValue function will return 0 for now to allow the plugin to finish, then EnergyPlus will abort
   ** Severe  ** Data Exchange API: Index error in getVariableValue; received handle: -1
   **   ~~~   ** The getVariableValue function will return 0 for now to allow the plugin to finish, then EnergyPlus will abort
   ** Severe  ** Data Exchange API: Index error in getVariableValue; received handle: -1
   **   ~~~   ** The getVariableValue function will return 0 for now to allow the plugin to finish, then EnergyPlus will abort
   ** Severe  ** Data Exchange API: Index error in getVariableValue; received handle: -1
   **   ~~~   ** The getVariableValue function will return 0 for now to allow the plugin to finish, then EnergyPlus will abort
   ** Severe  ** Data Exchange API: Index error in getVariableValue; received handle: -1
   **   ~~~   ** The getVariableValue function will return 0 for now to allow the plugin to finish, then EnergyPlus will abort
   ** Severe  ** Data Exchange API: Index error in getVariableValue; received handle: -1
   **   ~~~   ** The getVariableValue function will return 0 for now to allow the plugin to finish, then EnergyPlus will abort
   ** Severe  ** Data Exchange API: Index error in getVariableValue; received handle: -1
   **   ~~~   ** The getVariableValue function will return 0 for now to allow the plugin to finish, then EnergyPlus will abort
   ** Severe  ** Data Exchange API: Index error in getVariableValue; received handle: -1
   **   ~~~   ** The getVariableValue function will return 0 for now to allow the plugin to finish, then EnergyPlus will abort
   ** Severe  ** Data Exchange API: Index error in getVariableValue; received handle: -1
   **   ~~~   ** The getVariableValue function will return 0 for now to allow the plugin to finish, then EnergyPlus will abort
   ** Severe  ** Data Exchange API: Index error in getVariableValue; received handle: -1
   **   ~~~   ** The getVariableValue function will return 0 for now to allow the plugin to finish, then EnergyPlus will abort
   ** Severe  ** Data Exchange API: Index error in getVariableValue; received handle: -1
   **   ~~~   ** The getVariableValue function will return 0 for now to allow the plugin to finish, then EnergyPlus will abort
   ** Severe  ** Data Exchange API: Index error in getVariableValue; received handle: -1
   **   ~~~   ** The getVariableValue function will return 0 for now to allow the plugin to finish, then EnergyPlus will abort
   ** Severe  ** Data Exchange API: Index error in getVariableValue; received handle: -1
   **   ~~~   ** The getVariableValue function will return 0 for now to allow the plugin to finish, then EnergyPlus will abort
   ** Severe  ** Data Exchange API: Index error in getVariableValue; received handle: -1
   **   ~~~   ** The getVariableValue function will return 0 for now to allow the plugin to finish, then EnergyPlus will abort
   ** Severe  ** Data Exchange API: Index error in getVariableValue; received handle: -1
   **   ~~~   ** The getVariableValue function will return 0 for now to allow the plugin to finish, then EnergyPlus will abort
   ** Severe  ** Data Exchange API: Index error in getVariableValue; received handle: -1
   **   ~~~   ** The getVariableValue function will return 0 for now to allow the plugin to finish, then EnergyPlus will abort
   ** Severe  ** Data Exchange API: Index error in getVariableValue; received handle: -1
   **   ~~~   ** The getVariableValue function will return 0 for now to allow the plugin to finish, then EnergyPlus will abort
   ** Severe  ** Data Exchange API: Index error in getVariableValue; received handle: -1
   **   ~~~   ** The getVariableValue function will return 0 for now to allow the plugin to finish, then EnergyPlus will abort
   ** Severe  ** Data Exchange API: Index error in getVariableValue; received handle: -1
   **   ~~~   ** The getVariableValue function will return 0 for now to allow the plugin to finish, then EnergyPlus will abort
   ** Severe  ** Data Exchange API: Index error in getVariableValue; received handle: -1
   **   ~~~   ** The getVariableValue function will return 0 for now to allow the plugin to finish, then EnergyPlus will abort
   ** Severe  ** Data Exchange API: Index error in getVariableValue; received handle: -1
   **   ~~~   ** The getVariableValue function will return 0 for now to allow the plugin to finish, then EnergyPlus will abort
   ** Severe  ** Data Exchange API: Index error in getVariableValue; received handle: -1
   **   ~~~   ** The getVariableValue function will return 0 for now to allow the plugin to finish, then EnergyPlus will abort
   ** Severe  ** Data Exchange API: Index error in getVariableValue; received handle: -1
   **   ~~~   ** The getVariableValue function will return 0 for now to allow the plugin to finish, then EnergyPlus will abort
   ** Severe  ** Data Exchange API: Index error in getVariableValue; received handle: -1
   **   ~~~   ** The getVariableValue function will return 0 for now to allow the plugin to finish, then EnergyPlus will abort
   ** Severe  ** Data Exchange API: Index error in getVariableValue; received handle: -1
   **   ~~~   ** The getVariableValue function will return 0 for now to allow the plugin to finish, then EnergyPlus will abort
   ** Severe  ** Data Exchange API: Index error in getVariableValue; received handle: -1
   **   ~~~   ** The getVariableValue function will return 0 for now to allow the plugin to finish, then EnergyPlus will abort
   ** Severe  ** Data Exchange API: Index error in getVariableValue; received handle: -1
   **   ~~~   ** The getVariableValue function will return 0 for now to allow the plugin to finish, then EnergyPlus will abort
   ** Severe  ** Data Exchange API: Index error in getVariableValue; received handle: -1
   **   ~~~   ** The getVariableValue function will return 0 for now to allow the plugin to finish, then EnergyPlus will abort
   ** Severe  ** Data Exchange API: Index error in getVariableValue; received handle: -1
   **   ~~~   ** The getVariableValue function will return 0 for now to allow the plugin to finish, then EnergyPlus will abort
   ** Severe  ** Data Exchange API: Index error in getVariableValue; received handle: -1
   **   ~~~   ** The getVariableValue function will return 0 for now to allow the plugin to finish, then EnergyPlus will abort
   ** Severe  ** Data Exchange API: Index error in getVariableValue; received handle: -1
   **   ~~~   ** The getVariableValue function will return 0 for now to allow the plugin to finish, then EnergyPlus will abort
   ** Severe  ** Data Exchange API: Index error in getVariableValue; received handle: -1
   **   ~~~   ** The getVariableValue function will return 0 for now to allow the plugin to finish, then EnergyPlus will abort
   ** Severe  ** Data Exchange API: Index error in getVariableValue; received handle: -1
   **   ~~~   ** The getVariableValue function will return 0 for now to allow the plugin to finish, then EnergyPlus will abort
   ** Severe  ** Data Exchange API: Index error in getVariableValue; received handle: -1
   **   ~~~   ** The getVariableValue function will return 0 for now to allow the plugin to finish, then EnergyPlus will abort
   ** Severe  ** Data Exchange API: Index error in getVariableValue; received handle: -1
   **   ~~~   ** The getVariableValue function will return 0 for now to allow the plugin to finish, then EnergyPlus will abort
   ** Severe  ** Data Exchange API: Index error in getVariableValue; received handle: -1
   **   ~~~   ** The getVariableValue function will return 0 for now to allow the plugin to finish, then EnergyPlus will abort
   ** Severe  ** Data Exchange API: Index error in getVariableValue; received handle: -1
   **   ~~~   ** The getVariableValue function will return 0 for now to allow the plugin to finish, then EnergyPlus will abort
   ** Severe  ** Data Exchange API: Index error in getVariableValue; received handle: -1
   **   ~~~   ** The getVariableValue function will return 0 for now to allow the plugin to finish, then EnergyPlus will abort
   ** Severe  ** Data Exchange API: Index error in getVariableValue; received handle: -1
   **   ~~~   ** The getVariableValue function will return 0 for now to allow the plugin to finish, then EnergyPlus will abort
   ** Severe  ** Data Exchange API: Index error in getVariableValue; received handle: -1
   **   ~~~   ** The getVariableValue function will return 0 for now to allow the plugin to finish, then EnergyPlus will abort
   ** Severe  ** Data Exchange API: Index error in getVariableValue; received handle: -1
   **   ~~~   ** The getVariableValue function will return 0 for now to allow the plugin to finish, then EnergyPlus will abort
   ** Severe  ** Data Exchange API: Index error in getVariableValue; received handle: -1
   **   ~~~   ** The getVariableValue function will return 0 for now to allow the plugin to finish, then EnergyPlus will abort
   ** Severe  ** Data Exchange API: Index error in getVariableValue; received handle: -1
   **   ~~~   ** The getVariableValue function will return 0 for now to allow the plugin to finish, then EnergyPlus will abort
   ** Severe  ** Data Exchange API: Index error in getVariableValue; received handle: -1
   **   ~~~   ** The getVariableValue function will return 0 for now to allow the plugin to finish, then EnergyPlus will abort
   ** Severe  ** Data Exchange API: Index error in getVariableValue; received handle: -1
   **   ~~~   ** The getVariableValue function will return 0 for now to allow the plugin to finish, then EnergyPlus will abort
   ** Severe  ** Data Exchange API: Index error in getVariableValue; received handle: -1
   **   ~~~   ** The getVariableValue function will return 0 for now to allow the plugin to finish, then EnergyPlus will abort
   ** Severe  ** Data Exchange API: Index error in getVariableValue; received handle: -1
   **   ~~~   ** The getVariableValue function will return 0 for now to allow the plugin to finish, then EnergyPlus will abort
   ** Severe  ** Data Exchange API: Index error in getVariableValue; received handle: -1
   **   ~~~   ** The getVariableValue function will return 0 for now to allow the plugin to finish, then EnergyPlus will abort
   ** Severe  ** Data Exchange API: Index error in getVariableValue; received handle: -1
   **   ~~~   ** The getVariableValue function will return 0 for now to allow the plugin to finish, then EnergyPlus will abort
   ** Severe  ** Data Exchange API: Index error in getVariableValue; received handle: -1
   **   ~~~   ** The getVariableValue function will return 0 for now to allow the plugin to finish, then EnergyPlus will abort
   ** Severe  ** Data Exchange API: Index error in getVariableValue; received handle: -1
   **   ~~~   ** The getVariableValue function will return 0 for now to allow the plugin to finish, then EnergyPlus will abort
   ** Severe  ** Data Exchange API: Index error in getVariableValue; received handle: -1
   **   ~~~   ** The getVariableValue function will return 0 for now to allow the plugin to finish, then EnergyPlus will abort
   ** Severe  ** Data Exchange API: Index error in getVariableValue; received handle: -1
   **   ~~~   ** The getVariableValue function will return 0 for now to allow the plugin to finish, then EnergyPlus will abort
   ** Severe  ** Data Exchange API: Index error in getVariableValue; received handle: -1
   **   ~~~   ** The getVariableValue function will return 0 for now to allow the plugin to finish, then EnergyPlus will abort
   ** Severe  ** Data Exchange API: Index error in getVariableValue; received handle: -1
   **   ~~~   ** The getVariableValue function will return 0 for now to allow the plugin to finish, then EnergyPlus will abort
   ** Severe  ** Data Exchange API: Index error in getVariableValue; received handle: -1
   **   ~~~   ** The getVariableValue function will return 0 for now to allow the plugin to finish, then EnergyPlus will abort
   ** Severe  ** Data Exchange API: Index error in getVariableValue; received handle: -1
   **   ~~~   ** The getVariableValue function will return 0 for now to allow the plugin to finish, then EnergyPlus will abort
   ** Severe  ** Data Exchange API: Index error in getVariableValue; received handle: -1
   **   ~~~   ** The getVariableValue function will return 0 for now to allow the plugin to finish, then EnergyPlus will abort
   ** Severe  ** Data Exchange API: Index error in getVariableValue; received handle: -1
   **   ~~~   ** The getVariableValue function will return 0 for now to allow the plugin to finish, then EnergyPlus will abort
   ** Severe  ** Data Exchange API: Index error in getVariableValue; received handle: -1
   **   ~~~   ** The getVariableValue function will return 0 for now to allow the plugin to finish, then EnergyPlus will abort
   ** Severe  ** Data Exchange API: Index error in getVariableValue; received handle: -1
   **   ~~~   ** The getVariableValue function will return 0 for now to allow the plugin to finish, then EnergyPlus will abort
   ** Severe  ** Data Exchange API: Index error in getVariableValue; received handle: -1
   **   ~~~   ** The getVariableValue function will return 0 for now to allow the plugin to finish, then EnergyPlus will abort
   ** Severe  ** Data Exchange API: Index error in getVariableValue; received handle: -1
   **   ~~~   ** The getVariableValue function will return 0 for now to allow the plugin to finish, then EnergyPlus will abort
   ** Severe  ** Data Exchange API: Index error in getVariableValue; received handle: -1
   **   ~~~   ** The getVariableValue function will return 0 for now to allow the plugin to finish, then EnergyPlus will abort
   ** Severe  ** Data Exchange API: Index error in getVariableValue; received handle: -1
   **   ~~~   ** The getVariableValue function will return 0 for now to allow the plugin to finish, then EnergyPlus will abort
   ** Severe  ** Data Exchange API: Index error in getVariableValue; received handle: -1
   **   ~~~   ** The getVariableValue function will return 0 for now to allow the plugin to finish, then EnergyPlus will abort
   ** Severe  ** Data Exchange API: Index error in getVariableValue; received handle: -1
   **   ~~~   ** The getVariableValue function will return 0 for now to allow the plugin to finish, then EnergyPlus will abort
   ** Severe  ** Data Exchange API: Index error in getVariableValue; received handle: -1
   **   ~~~   ** The getVariableValue function will return 0 for now to allow the plugin to finish, then EnergyPlus will abort
   ** Severe  ** Data Exchange API: Index error in getVariableValue; received handle: -1
   **   ~~~   ** The getVariableValue function will return 0 for now to allow the plugin to finish, then EnergyPlus will abort
   ** Severe  ** Data Exchange API: Index error in getVariableValue; received handle: -1
   **   ~~~   ** The getVariableValue function will return 0 for now to allow the plugin to finish, then EnergyPlus will abort
   ** Severe  ** Data Exchange API: Index error in getVariableValue; received handle: -1
   **   ~~~   ** The getVariableValue function will return 0 for now to allow the plugin to finish, then EnergyPlus will abort
   ** Severe  ** Data Exchange API: Index error in getVariableValue; received handle: -1
   **   ~~~   ** The getVariableValue function will return 0 for now to allow the plugin to finish, then EnergyPlus will abort
   ** Severe  ** Data Exchange API: Index error in getVariableValue; received handle: -1
   **   ~~~   ** The getVariableValue function will return 0 for now to allow the plugin to finish, then EnergyPlus will abort
   ** Severe  ** Data Exchange API: Index error in getVariableValue; received handle: -1
   **   ~~~   ** The getVariableValue function will return 0 for now to allow the plugin to finish, then EnergyPlus will abort
   ** Severe  ** Data Exchange API: Index error in getVariableValue; received handle: -1
   **   ~~~   ** The getVariableValue function will return 0 for now to allow the plugin to finish, then EnergyPlus will abort
   ** Severe  ** Data Exchange API: Index error in getVariableValue; received handle: -1
   **   ~~~   ** The getVariableValue function will return 0 for now to allow the plugin to finish, then EnergyPlus will abort
   ** Severe  ** Data Exchange API: Index error in getVariableValue; received handle: -1
   **   ~~~   ** The getVariableValue function will return 0 for now to allow the plugin to finish, then EnergyPlus will abort
   ** Severe  ** Data Exchange API: Index error in getVariableValue; received handle: -1
   **   ~~~   ** The getVariableValue function will return 0 for now to allow the plugin to finish, then EnergyPlus will abort
   ** Severe  ** Data Exchange API: Index error in getVariableValue; received handle: -1
   **   ~~~   ** The getVariableValue function will return 0 for now to allow the plugin to finish, then EnergyPlus will abort
   ** Severe  ** Data Exchange API: Index error in getVariableValue; received handle: -1
   **   ~~~   ** The getVariableValue function will return 0 for now to allow the plugin to finish, then EnergyPlus will abort
   ** Severe  ** Data Exchange API: Index error in getVariableValue; received handle: -1
   **   ~~~   ** The getVariableValue function will return 0 for now to allow the plugin to finish, then EnergyPlus will abort
   ** Severe  ** Data Exchange API: Index error in getVariableValue; received handle: -1
   **   ~~~   ** The getVariableValue function will return 0 for now to allow the plugin to finish, then EnergyPlus will abort
   ** Severe  ** Data Exchange API: Index error in getVariableValue; received handle: -1
   **   ~~~   ** The getVariableValue function will return 0 for now to allow the plugin to finish, then EnergyPlus will abort
   ** Severe  ** Data Exchange API: Index error in getVariableValue; received handle: -1
   **   ~~~   ** The getVariableValue function will return 0 for now to allow the plugin to finish, then EnergyPlus will abort
   ** Severe  ** Data Exchange API: Index error in getVariableValue; received handle: -1
   **   ~~~   ** The getVariableValue function will return 0 for now to allow the plugin to finish, then EnergyPlus will abort
   ** Severe  ** Data Exchange API: Index error in getVariableValue; received handle: -1
   **   ~~~   ** The getVariableValue function will return 0 for now to allow the plugin to finish, then EnergyPlus will abort
   ** Severe  ** Data Exchange API: Index error in getVariableValue; received handle: -1
   **   ~~~   ** The getVariableValue function will return 0 for now to allow the plugin to finish, then EnergyPlus will abort
   ** Severe  ** Data Exchange API: Index error in getVariableValue; received handle: -1
   **   ~~~   ** The getVariableValue function will return 0 for now to allow the plugin to finish, then EnergyPlus will abort
   ** Severe  ** Data Exchange API: Index error in getVariableValue; received handle: -1
   **   ~~~   ** The getVariableValue function will return 0 for now to allow the plugin to finish, then EnergyPlus will abort
   ** Severe  ** Data Exchange API: Index error in getVariableValue; received handle: -1
   **   ~~~   ** The getVariableValue function will return 0 for now to allow the plugin to finish, then EnergyPlus will abort
   ** Severe  ** Data Exchange API: Index error in getVariableValue; received handle: -1
   **   ~~~   ** The getVariableValue function will return 0 for now to allow the plugin to finish, then EnergyPlus will abort
   ** Severe  ** Data Exchange API: Index error in getVariableValue; received handle: -1
   **   ~~~   ** The getVariableValue function will return 0 for now to allow the plugin to finish, then EnergyPlus will abort
   ** Severe  ** Data Exchange API: Index error in getVariableValue; received handle: -1
   **   ~~~   ** The getVariableValue function will return 0 for now to allow the plugin to finish, then EnergyPlus will abort
   ** Severe  ** Data Exchange API: Index error in getVariableValue; received handle: -1
   **   ~~~   ** The getVariableValue function will return 0 for now to allow the plugin to finish, then EnergyPlus will abort
   ** Severe  ** Data Exchange API: Index error in getVariableValue; received handle: -1
   **   ~~~   ** The getVariableValue function will return 0 for now to allow the plugin to finish, then EnergyPlus will abort
   ** Severe  ** Data Exchange API: Index error in getVariableValue; received handle: -1
   **   ~~~   ** The getVariableValue function will return 0 for now to allow the plugin to finish, then EnergyPlus will abort
   ** Severe  ** Data Exchange API: Index error in getVariableValue; received handle: -1
   **   ~~~   ** The getVariableValue function will return 0 for now to allow the plugin to finish, then EnergyPlus will abort
   ** Severe  ** Data Exchange API: Index error in getVariableValue; received handle: -1
   **   ~~~   ** The getVariableValue function will return 0 for now to allow the plugin to finish, then EnergyPlus will abort
   ** Severe  ** Data Exchange API: Index error in getVariableValue; received handle: -1
   **   ~~~   ** The getVariableValue function will return 0 for now to allow the plugin to finish, then EnergyPlus will abort
   ** Severe  ** Data Exchange API: Index error in getVariableValue; received handle: -1
   **   ~~~   ** The getVariableValue function will return 0 for now to allow the plugin to finish, then EnergyPlus will abort
   ** Severe  ** Data Exchange API: Index error in getVariableValue; received handle: -1
   **   ~~~   ** The getVariableValue function will return 0 for now to allow the plugin to finish, then EnergyPlus will abort
   ** Severe  ** Data Exchange API: Index error in getVariableValue; received handle: -1
   **   ~~~   ** The getVariableValue function will return 0 for now to allow the plugin to finish, then EnergyPlus will abort
   ** Severe  ** Data Exchange API: Index error in getVariableValue; received handle: -1
   **   ~~~   ** The getVariableValue function will return 0 for now to allow the plugin to finish, then EnergyPlus will abort
   ** Severe  ** Data Exchange API: Index error in getVariableValue; received handle: -1
   **   ~~~   ** The getVariableValue function will return 0 for now to allow the plugin to finish, then EnergyPlus will abort
   ** Severe  ** Data Exchange API: Index error in getVariableValue; received handle: -1
   **   ~~~   ** The getVariableValue function will return 0 for now to allow the plugin to finish, then EnergyPlus will abort
   ** Severe  ** Data Exchange API: Index error in getVariableValue; received handle: -1
   **   ~~~   ** The getVariableValue function will return 0 for now to allow the plugin to finish, then EnergyPlus will abort
   ** Severe  ** Data Exchange API: Index error in getVariableValue; received handle: -1
   **   ~~~   ** The getVariableValue function will return 0 for now to allow the plugin to finish, then EnergyPlus will abort
   ** Severe  ** Data Exchange API: Index error in getVariableValue; received handle: -1
   **   ~~~   ** The getVariableValue function will return 0 for now to allow the plugin to finish, then EnergyPlus will abort
   ** Severe  ** Data Exchange API: Index error in getVariableValue; received handle: -1
   **   ~~~   ** The getVariableValue function will return 0 for now to allow the plugin to finish, then EnergyPlus will abort
   ** Severe  ** Data Exchange API: Index error in getVariableValue; received handle: -1
   **   ~~~   ** The getVariableValue function will return 0 for now to allow the plugin to finish, then EnergyPlus will abort
   ** Severe  ** Data Exchange API: Index error in getVariableValue; received handle: -1
   **   ~~~   ** The getVariableValue function will return 0 for now to allow the plugin to finish, then EnergyPlus will abort
   ** Severe  ** Data Exchange API: Index error in getVariableValue; received handle: -1
   **   ~~~   ** The getVariableValue function will return 0 for now to allow the plugin to finish, then EnergyPlus will abort
   ** Severe  ** Data Exchange API: Index error in getVariableValue; received handle: -1
   **   ~~~   ** The getVariableValue function will return 0 for now to allow the plugin to finish, then EnergyPlus will abort
   ** Severe  ** Data Exchange API: Index error in getVariableValue; received handle: -1
   **   ~~~   ** The getVariableValue function will return 0 for now to allow the plugin to finish, then EnergyPlus will abort
   ** Severe  ** Data Exchange API: Index error in getVariableValue; received handle: -1
   **   ~~~   ** The getVariableValue function will return 0 for now to allow the plugin to finish, then EnergyPlus will abort
   ** Severe  ** Data Exchange API: Index error in getVariableValue; received handle: -1
   **   ~~~   ** The getVariableValue function will return 0 for now to allow the plugin to finish, then EnergyPlus will abort
   ** Severe  ** Data Exchange API: Index error in getVariableValue; received handle: -1
   **   ~~~   ** The getVariableValue function will return 0 for now to allow the plugin to finish, then EnergyPlus will abort
   ** Severe  ** Data Exchange API: Index error in getVariableValue; received handle: -1
   **   ~~~   ** The getVariableValue function will return 0 for now to allow the plugin to finish, then EnergyPlus will abort
   ** Severe  ** Data Exchange API: Index error in getVariableValue; received handle: -1
   **   ~~~   ** The getVariableValue function will return 0 for now to allow the plugin to finish, then EnergyPlus will abort
   ** Severe  ** Data Exchange API: Index error in getVariableValue; received handle: -1
   **   ~~~   ** The getVariableValue function will return 0 for now to allow the plugin to finish, then EnergyPlus will abort
   ** Severe  ** Data Exchange API: Index error in getVariableValue; received handle: -1
   **   ~~~   ** The getVariableValue function will return 0 for now to allow the plugin to finish, then EnergyPlus will abort
   ** Severe  ** Data Exchange API: Index error in getVariableValue; received handle: -1
   **   ~~~   ** The getVariableValue function will return 0 for now to allow the plugin to finish, then EnergyPlus will abort
   ** Severe  ** Data Exchange API: Index error in getVariableValue; received handle: -1
   **   ~~~   ** The getVariableValue function will return 0 for now to allow the plugin to finish, then EnergyPlus will abort
   ** Severe  ** Data Exchange API: Index error in getVariableValue; received handle: -1
   **   ~~~   ** The getVariableValue function will return 0 for now to allow the plugin to finish, then EnergyPlus will abort
   ** Severe  ** Data Exchange API: Index error in getVariableValue; received handle: -1
   **   ~~~   ** The getVariableValue function will return 0 for now to allow the plugin to finish, then EnergyPlus will abort
   ** Severe  ** Data Exchange API: Index error in getVariableValue; received handle: -1
   **   ~~~   ** The getVariableValue function will return 0 for now to allow the plugin to finish, then EnergyPlus will abort
   ** Severe  ** Data Exchange API: Index error in getVariableValue; received handle: -1
   **   ~~~   ** The getVariableValue function will return 0 for now to allow the plugin to finish, then EnergyPlus will abort
   ** Severe  ** Data Exchange API: Index error in getVariableValue; received handle: -1
   **   ~~~   ** The getVariableValue function will return 0 for now to allow the plugin to finish, then EnergyPlus will abort
   ** Severe  ** Data Exchange API: Index error in getVariableValue; received handle: -1
   **   ~~~   ** The getVariableValue function will return 0 for now to allow the plugin to finish, then EnergyPlus will abort
   ** Severe  ** Data Exchange API: Index error in getVariableValue; received handle: -1
   **   ~~~   ** The getVariableValue function will return 0 for now to allow the plugin to finish, then EnergyPlus will abort
   ** Severe  ** Data Exchange API: Index error in getVariableValue; received handle: -1
   **   ~~~   ** The getVariableValue function will return 0 for now to allow the plugin to finish, then EnergyPlus will abort
   ** Severe  ** Data Exchange API: Index error in getVariableValue; received handle: -1
   **   ~~~   ** The getVariableValue function will return 0 for now to allow the plugin to finish, then EnergyPlus will abort
   ** Severe  ** Data Exchange API: Index error in getVariableValue; received handle: -1
   **   ~~~   ** The getVariableValue function will return 0 for now to allow the plugin to finish, then EnergyPlus will abort
   ** Severe  ** Data Exchange API: Index error in getVariableValue; received handle: -1
   **   ~~~   ** The getVariableValue function will return 0 for now to allow the plugin to finish, then EnergyPlus will abort
   ** Severe  ** Data Exchange API: Index error in getVariableValue; received handle: -1
   **   ~~~   ** The getVariableValue function will return 0 for now to allow the plugin to finish, then EnergyPlus will abort
   ** Severe  ** Data Exchange API: Index error in getVariableValue; received handle: -1
   **   ~~~   ** The getVariableValue function will return 0 for now to allow the plugin to finish, then EnergyPlus will abort
   ** Severe  ** Data Exchange API: Index error in getVariableValue; received handle: -1
   **   ~~~   ** The getVariableValue function will return 0 for now to allow the plugin to finish, then EnergyPlus will abort
   ** Severe  ** Data Exchange API: Index error in getVariableValue; received handle: -1
   **   ~~~   ** The getVariableValue function will return 0 for now to allow the plugin to finish, then EnergyPlus will abort
   ** Severe  ** Data Exchange API: Index error in getVariableValue; received handle: -1
   **   ~~~   ** The getVariableValue function will return 0 for now to allow the plugin to finish, then EnergyPlus will abort
   ** Severe  ** Data Exchange API: Index error in getVariableValue; received handle: -1
   **   ~~~   ** The getVariableValue function will return 0 for now to allow the plugin to finish, then EnergyPlus will abort
   ** Severe  ** Data Exchange API: Index error in getVariableValue; received handle: -1
   **   ~~~   ** The getVariableValue function will return 0 for now to allow the plugin to finish, then EnergyPlus will abort
   ** Severe  ** Data Exchange API: Index error in getVariableValue; received handle: -1
   **   ~~~   ** The getVariableValue function will return 0 for now to allow the plugin to finish, then EnergyPlus will abort
   ** Severe  ** Data Exchange API: Index error in getVariableValue; received handle: -1
   **   ~~~   ** The getVariableValue function will return 0 for now to allow the plugin to finish, then EnergyPlus will abort
   ** Severe  ** Data Exchange API: Index error in getVariableValue; received handle: -1
   **   ~~~   ** The getVariableValue function will return 0 for now to allow the plugin to finish, then EnergyPlus will abort
   ** Severe  ** Data Exchange API: Index error in getVariableValue; received handle: -1
   **   ~~~   ** The getVariableValue function will return 0 for now to allow the plugin to finish, then EnergyPlus will abort
   ** Severe  ** Data Exchange API: Index error in getVariableValue; received handle: -1
   **   ~~~   ** The getVariableValue function will return 0 for now to allow the plugin to finish, then EnergyPlus will abort
   ** Severe  ** Data Exchange API: Index error in getVariableValue; received handle: -1
   **   ~~~   ** The getVariableValue function will return 0 for now to allow the plugin to finish, then EnergyPlus will abort
   ** Severe  ** Data Exchange API: Index error in getVariableValue; received handle: -1
   **   ~~~   ** The getVariableValue function will return 0 for now to allow the plugin to finish, then EnergyPlus will abort
   ** Severe  ** Data Exchange API: Index error in getVariableValue; received handle: -1
   **   ~~~   ** The getVariableValue function will return 0 for now to allow the plugin to finish, then EnergyPlus will abort
   ** Severe  ** Data Exchange API: Index error in getVariableValue; received handle: -1
   **   ~~~   ** The getVariableValue function will return 0 for now to allow the plugin to finish, then EnergyPlus will abort
   ** Severe  ** Data Exchange API: Index error in getVariableValue; received handle: -1
   **   ~~~   ** The getVariableValue function will return 0 for now to allow the plugin to finish, then EnergyPlus will abort
   ** Severe  ** Data Exchange API: Index error in getVariableValue; received handle: -1
   **   ~~~   ** The getVariableValue function will return 0 for now to allow the plugin to finish, then EnergyPlus will abort
   ** Severe  ** Data Exchange API: Index error in getVariableValue; received handle: -1
   **   ~~~   ** The getVariableValue function will return 0 for now to allow the plugin to finish, then EnergyPlus will abort
   ** Severe  ** Data Exchange API: Index error in getVariableValue; received handle: -1
   **   ~~~   ** The getVariableValue function will return 0 for now to allow the plugin to finish, then EnergyPlus will abort
   ** Severe  ** Data Exchange API: Index error in getVariableValue; received handle: -1
   **   ~~~   ** The getVariableValue function will return 0 for now to allow the plugin to finish, then EnergyPlus will abort
   ** Severe  ** Data Exchange API: Index error in getVariableValue; received handle: -1
   **   ~~~   ** The getVariableValue function will return 0 for now to allow the plugin to finish, then EnergyPlus will abort
   ** Severe  ** Data Exchange API: Index error in getVariableValue; received handle: -1
   **   ~~~   ** The getVariableValue function will return 0 for now to allow the plugin to finish, then EnergyPlus will abort
   ** Severe  ** Data Exchange API: Index error in getVariableValue; received handle: -1
   **   ~~~   ** The getVariableValue function will return 0 for now to allow the plugin to finish, then EnergyPlus will abort
   ** Severe  ** Data Exchange API: Index error in getVariableValue; received handle: -1
   **   ~~~   ** The getVariableValue function will return 0 for now to allow the plugin to finish, then EnergyPlus will abort
   ** Severe  ** Data Exchange API: Index error in getVariableValue; received handle: -1
   **   ~~~   ** The getVariableValue function will return 0 for now to allow the plugin to finish, then EnergyPlus will abort
   ** Severe  ** Data Exchange API: Index error in getVariableValue; received handle: -1
   **   ~~~   ** The getVariableValue function will return 0 for now to allow the plugin to finish, then EnergyPlus will abort
   ** Severe  ** Data Exchange API: Index error in getVariableValue; received handle: -1
   **   ~~~   ** The getVariableValue function will return 0 for now to allow the plugin to finish, then EnergyPlus will abort
   ** Severe  ** Data Exchange API: Index error in getVariableValue; received handle: -1
   **   ~~~   ** The getVariableValue function will return 0 for now to allow the plugin to finish, then EnergyPlus will abort
   ** Severe  ** Data Exchange API: Index error in getVariableValue; received handle: -1
   **   ~~~   ** The getVariableValue function will return 0 for now to allow the plugin to finish, then EnergyPlus will abort
   ** Severe  ** Data Exchange API: Index error in getVariableValue; received handle: -1
   **   ~~~   ** The getVariableValue function will return 0 for now to allow the plugin to finish, then EnergyPlus will abort
   ** Severe  ** Data Exchange API: Index error in getVariableValue; received handle: -1
   **   ~~~   ** The getVariableValue function will return 0 for now to allow the plugin to finish, then EnergyPlus will abort
   ** Severe  ** Data Exchange API: Index error in getVariableValue; received handle: -1
   **   ~~~   ** The getVariableValue function will return 0 for now to allow the plugin to finish, then EnergyPlus will abort
   ** Severe  ** Data Exchange API: Index error in getVariableValue; received handle: -1
   **   ~~~   ** The getVariableValue function will return 0 for now to allow the plugin to finish, then EnergyPlus will abort
   ** Severe  ** Data Exchange API: Index error in getVariableValue; received handle: -1
   **   ~~~   ** The getVariableValue function will return 0 for now to allow the plugin to finish, then EnergyPlus will abort
   ** Severe  ** Data Exchange API: Index error in getVariableValue; received handle: -1
   **   ~~~   ** The getVariableValue function will return 0 for now to allow the plugin to finish, then EnergyPlus will abort
   ** Severe  ** Data Exchange API: Index error in getVariableValue; received handle: -1
   **   ~~~   ** The getVariableValue function will return 0 for now to allow the plugin to finish, then EnergyPlus will abort
   ** Severe  ** Data Exchange API: Index error in getVariableValue; received handle: -1
   **   ~~~   ** The getVariableValue function will return 0 for now to allow the plugin to finish, then EnergyPlus will abort
   ** Severe  ** Data Exchange API: Index error in getVariableValue; received handle: -1
   **   ~~~   ** The getVariableValue function will return 0 for now to allow the plugin to finish, then EnergyPlus will abort
   ** Severe  ** Data Exchange API: Index error in getVariableValue; received handle: -1
   **   ~~~   ** The getVariableValue function will return 0 for now to allow the plugin to finish, then EnergyPlus will abort
   ** Severe  ** Data Exchange API: Index error in getVariableValue; received handle: -1
   **   ~~~   ** The getVariableValue function will return 0 for now to allow the plugin to finish, then EnergyPlus will abort
   ** Severe  ** Data Exchange API: Index error in getVariableValue; received handle: -1
   **   ~~~   ** The getVariableValue function will return 0 for now to allow the plugin to finish, then EnergyPlus will abort
   ** Severe  ** Data Exchange API: Index error in getVariableValue; received handle: -1
   **   ~~~   ** The getVariableValue function will return 0 for now to allow the plugin to finish, then EnergyPlus will abort
   ** Severe  ** Data Exchange API: Index error in getVariableValue; received handle: -1
   **   ~~~   ** The getVariableValue function will return 0 for now to allow the plugin to finish, then EnergyPlus will abort
   ** Severe  ** Data Exchange API: Index error in getVariableValue; received handle: -1
   **   ~~~   ** The getVariableValue function will return 0 for now to allow the plugin to finish, then EnergyPlus will abort
   ** Severe  ** Data Exchange API: Index error in getVariableValue; received handle: -1
   **   ~~~   ** The getVariableValue function will return 0 for now to allow the plugin to finish, then EnergyPlus will abort
   ** Severe  ** Data Exchange API: Index error in getVariableValue; received handle: -1
   **   ~~~   ** The getVariableValue function will return 0 for now to allow the plugin to finish, then EnergyPlus will abort
   ** Severe  ** Data Exchange API: Index error in getVariableValue; received handle: -1
   **   ~~~   ** The getVariableValue function will return 0 for now to allow the plugin to finish, then EnergyPlus will abort
   ** Severe  ** Data Exchange API: Index error in getVariableValue; received handle: -1
   **   ~~~   ** The getVariableValue function will return 0 for now to allow the plugin to finish, then EnergyPlus will abort
   ** Severe  ** Data Exchange API: Index error in getVariableValue; received handle: -1
   **   ~~~   ** The getVariableValue function will return 0 for now to allow the plugin to finish, then EnergyPlus will abort
   ** Severe  ** Data Exchange API: Index error in getVariableValue; received handle: -1
   **   ~~~   ** The getVariableValue function will return 0 for now to allow the plugin to finish, then EnergyPlus will abort
   ** Severe  ** Data Exchange API: Index error in getVariableValue; received handle: -1
   **   ~~~   ** The getVariableValue function will return 0 for now to allow the plugin to finish, then EnergyPlus will abort
   ** Severe  ** Data Exchange API: Index error in getVariableValue; received handle: -1
   **   ~~~   ** The getVariableValue function will return 0 for now to allow the plugin to finish, then EnergyPlus will abort
   ** Severe  ** Data Exchange API: Index error in getVariableValue; received handle: -1
   **   ~~~   ** The getVariableValue function will return 0 for now to allow the plugin to finish, then EnergyPlus will abort
   ** Severe  ** Data Exchange API: Index error in getVariableValue; received handle: -1
   **   ~~~   ** The getVariableValue function will return 0 for now to allow the plugin to finish, then EnergyPlus will abort
   ** Severe  ** Data Exchange API: Index error in getVariableValue; received handle: -1
   **   ~~~   ** The getVariableValue function will return 0 for now to allow the plugin to finish, then EnergyPlus will abort
   ** Severe  ** Data Exchange API: Index error in getVariableValue; received handle: -1
   **   ~~~   ** The getVariableValue function will return 0 for now to allow the plugin to finish, then EnergyPlus will abort
   ** Severe  ** Data Exchange API: Index error in getVariableValue; received handle: -1
   **   ~~~   ** The getVariableValue function will return 0 for now to allow the plugin to finish, then EnergyPlus will abort
   ** Severe  ** Data Exchange API: Index error in getVariableValue; received handle: -1
   **   ~~~   ** The getVariableValue function will return 0 for now to allow the plugin to finish, then EnergyPlus will abort
   ** Severe  ** Data Exchange API: Index error in getVariableValue; received handle: -1
   **   ~~~   ** The getVariableValue function will return 0 for now to allow the plugin to finish, then EnergyPlus will abort
   ** Severe  ** Data Exchange API: Index error in getVariableValue; received handle: -1
   **   ~~~   ** The getVariableValue function will return 0 for now to allow the plugin to finish, then EnergyPlus will abort
   ** Severe  ** Data Exchange API: Index error in getVariableValue; received handle: -1
   **   ~~~   ** The getVariableValue function will return 0 for now to allow the plugin to finish, then EnergyPlus will abort
   ** Severe  ** Data Exchange API: Index error in getVariableValue; received handle: -1
   **   ~~~   ** The getVariableValue function will return 0 for now to allow the plugin to finish, then EnergyPlus will abort
   ** Severe  ** Data Exchange API: Index error in getVariableValue; received handle: -1
   **   ~~~   ** The getVariableValue function will return 0 for now to allow the plugin to finish, then EnergyPlus will abort
   ** Severe  ** Data Exchange API: Index error in getVariableValue; received handle: -1
   **   ~~~   ** The getVariableValue function will return 0 for now to allow the plugin to finish, then EnergyPlus will abort
   ** Severe  ** Data Exchange API: Index error in getVariableValue; received handle: -1
   **   ~~~   ** The getVariableValue function will return 0 for now to allow the plugin to finish, then EnergyPlus will abort
   ** Severe  ** Data Exchange API: Index error in getVariableValue; received handle: -1
   **   ~~~   ** The getVariableValue function will return 0 for now to allow the plugin to finish, then EnergyPlus will abort
   ** Severe  ** Data Exchange API: Index error in getVariableValue; received handle: -1
   **   ~~~   ** The getVariableValue function will return 0 for now to allow the plugin to finish, then EnergyPlus will abort
   ** Severe  ** Data Exchange API: Index error in getVariableValue; received handle: -1
   **   ~~~   ** The getVariableValue function will return 0 for now to allow the plugin to finish, then EnergyPlus will abort
   ** Severe  ** Data Exchange API: Index error in getVariableValue; received handle: -1
   **   ~~~   ** The getVariableValue function will return 0 for now to allow the plugin to finish, then EnergyPlus will abort
   ** Severe  ** Data Exchange API: Index error in getVariableValue; received handle: -1
   **   ~~~   ** The getVariableValue function will return 0 for now to allow the plugin to finish, then EnergyPlus will abort
   ** Severe  ** Data Exchange API: Index error in getVariableValue; received handle: -1
   **   ~~~   ** The getVariableValue function will return 0 for now to allow the plugin to finish, then EnergyPlus will abort
   ** Severe  ** Data Exchange API: Index error in getVariableValue; received handle: -1
   **   ~~~   ** The getVariableValue function will return 0 for now to allow the plugin to finish, then EnergyPlus will abort
   ** Severe  ** Data Exchange API: Index error in getVariableValue; received handle: -1
   **   ~~~   ** The getVariableValue function will return 0 for now to allow the plugin to finish, then EnergyPlus will abort
   ** Severe  ** Data Exchange API: Index error in getVariableValue; received handle: -1
   **   ~~~   ** The getVariableValue function will return 0 for now to allow the plugin to finish, then EnergyPlus will abort
   ** Severe  ** Data Exchange API: Index error in getVariableValue; received handle: -1
   **   ~~~   ** The getVariableValue function will return 0 for now to allow the plugin to finish, then EnergyPlus will abort
   ** Severe  ** Data Exchange API: Index error in getVariableValue; received handle: -1
   **   ~~~   ** The getVariableValue function will return 0 for now to allow the plugin to finish, then EnergyPlus will abort
   ** Severe  ** Data Exchange API: Index error in getVariableValue; received handle: -1
   **   ~~~   ** The getVariableValue function will return 0 for now to allow the plugin to finish, then EnergyPlus will abort
   ** Severe  ** Data Exchange API: Index error in getVariableValue; received handle: -1
   **   ~~~   ** The getVariableValue function will return 0 for now to allow the plugin to finish, then EnergyPlus will abort
   ** Severe  ** Data Exchange API: Index error in getVariableValue; received handle: -1
   **   ~~~   ** The getVariableValue function will return 0 for now to allow the plugin to finish, then EnergyPlus will abort
   ** Severe  ** Data Exchange API: Index error in getVariableValue; received handle: -1
   **   ~~~   ** The getVariableValue function will return 0 for now to allow the plugin to finish, then EnergyPlus will abort
   ** Severe  ** Data Exchange API: Index error in getVariableValue; received handle: -1
   **   ~~~   ** The getVariableValue function will return 0 for now to allow the plugin to finish, then EnergyPlus will abort
   ** Severe  ** Data Exchange API: Index error in getVariableValue; received handle: -1
   **   ~~~   ** The getVariableValue function will return 0 for now to allow the plugin to finish, then EnergyPlus will abort
   ** Severe  ** Data Exchange API: Index error in getVariableValue; received handle: -1
   **   ~~~   ** The getVariableValue function will return 0 for now to allow the plugin to finish, then EnergyPlus will abort
   ** Severe  ** Data Exchange API: Index error in getVariableValue; received handle: -1
   **   ~~~   ** The getVariableValue function will return 0 for now to allow the plugin to finish, then EnergyPlus will abort
   ** Severe  ** Data Exchange API: Index error in getVariableValue; received handle: -1
   **   ~~~   ** The getVariableValue function will return 0 for now to allow the plugin to finish, then EnergyPlus will abort
   ** Severe  ** Data Exchange API: Index error in getVariableValue; received handle: -1
   **   ~~~   ** The getVariableValue function will return 0 for now to allow the plugin to finish, then EnergyPlus will abort
   ** Severe  ** Data Exchange API: Index error in getVariableValue; received handle: -1
   **   ~~~   ** The getVariableValue function will return 0 for now to allow the plugin to finish, then EnergyPlus will abort
   ** Severe  ** Data Exchange API: Index error in getVariableValue; received handle: -1
   **   ~~~   ** The getVariableValue function will return 0 for now to allow the plugin to finish, then EnergyPlus will abort
   ** Severe  ** Data Exchange API: Index error in getVariableValue; received handle: -1
   **   ~~~   ** The getVariableValue function will return 0 for now to allow the plugin to finish, then EnergyPlus will abort
   ** Severe  ** Data Exchange API: Index error in getVariableValue; received handle: -1
   **   ~~~   ** The getVariableValue function will return 0 for now to allow the plugin to finish, then EnergyPlus will abort
   ** Severe  ** Data Exchange API: Index error in getVariableValue; received handle: -1
   **   ~~~   ** The getVariableValue function will return 0 for now to allow the plugin to finish, then EnergyPlus will abort
   ** Severe  ** Data Exchange API: Index error in getVariableValue; received handle: -1
   **   ~~~   ** The getVariableValue function will return 0 for now to allow the plugin to finish, then EnergyPlus will abort
   ** Severe  ** Data Exchange API: Index error in getVariableValue; received handle: -1
   **   ~~~   ** The getVariableValue function will return 0 for now to allow the plugin to finish, then EnergyPlus will abort
   ** Severe  ** Data Exchange API: Index error in getVariableValue; received handle: -1
   **   ~~~   ** The getVariableValue function will return 0 for now to allow the plugin to finish, then EnergyPlus will abort
   ** Severe  ** Data Exchange API: Index error in getVariableValue; received handle: -1
   **   ~~~   ** The getVariableValue function will return 0 for now to allow the plugin to finish, then EnergyPlus will abort
   ** Severe  ** Data Exchange API: Index error in getVariableValue; received handle: -1
   **   ~~~   ** The getVariableValue function will return 0 for now to allow the plugin to finish, then EnergyPlus will abort
   ** Severe  ** Data Exchange API: Index error in getVariableValue; received handle: -1
   **   ~~~   ** The getVariableValue function will return 0 for now to allow the plugin to finish, then EnergyPlus will abort
   ** Severe  ** Data Exchange API: Index error in getVariableValue; received handle: -1
   **   ~~~   ** The getVariableValue function will return 0 for now to allow the plugin to finish, then EnergyPlus will abort
   ** Severe  ** Data Exchange API: Index error in getVariableValue; received handle: -1
   **   ~~~   ** The getVariableValue function will return 0 for now to allow the plugin to finish, then EnergyPlus will abort
   ** Severe  ** Data Exchange API: Index error in getVariableValue; received handle: -1
   **   ~~~   ** The getVariableValue function will return 0 for now to allow the plugin to finish, then EnergyPlus will abort
   ** Severe  ** Data Exchange API: Index error in getVariableValue; received handle: -1
   **   ~~~   ** The getVariableValue function will return 0 for now to allow the plugin to finish, then EnergyPlus will abort
   ** Severe  ** Data Exchange API: Index error in getVariableValue; received handle: -1
   **   ~~~   ** The getVariableValue function will return 0 for now to allow the plugin to finish, then EnergyPlus will abort
   ** Severe  ** Data Exchange API: Index error in getVariableValue; received handle: -1
   **   ~~~   ** The getVariableValue function will return 0 for now to allow the plugin to finish, then EnergyPlus will abort
   ** Severe  ** Data Exchange API: Index error in getVariableValue; received handle: -1
   **   ~~~   ** The getVariableValue function will return 0 for now to allow the plugin to finish, then EnergyPlus will abort
   ** Severe  ** Data Exchange API: Index error in getVariableValue; received handle: -1
   **   ~~~   ** The getVariableValue function will return 0 for now to allow the plugin to finish, then EnergyPlus will abort
   ** Severe  ** Data Exchange API: Index error in getVariableValue; received handle: -1
   **   ~~~   ** The getVariableValue function will return 0 for now to allow the plugin to finish, then EnergyPlus will abort
   ** Severe  ** Data Exchange API: Index error in getVariableValue; received handle: -1
   **   ~~~   ** The getVariableValue function will return 0 for now to allow the plugin to finish, then EnergyPlus will abort
   ** Severe  ** Data Exchange API: Index error in getVariableValue; received handle: -1
   **   ~~~   ** The getVariableValue function will return 0 for now to allow the plugin to finish, then EnergyPlus will abort
   ** Severe  ** Data Exchange API: Index error in getVariableValue; received handle: -1
   **   ~~~   ** The getVariableValue function will return 0 for now to allow the plugin to finish, then EnergyPlus will abort
   ** Severe  ** Data Exchange API: Index error in getVariableValue; received handle: -1
   **   ~~~   ** The getVariableValue function will return 0 for now to allow the plugin to finish, then EnergyPlus will abort
   ** Severe  ** Data Exchange API: Index error in getVariableValue; received handle: -1
   **   ~~~   ** The getVariableValue function will return 0 for now to allow the plugin to finish, then EnergyPlus will abort
   ** Severe  ** Data Exchange API: Index error in getVariableValue; received handle: -1
   **   ~~~   ** The getVariableValue function will return 0 for now to allow the plugin to finish, then EnergyPlus will abort
   ** Severe  ** Data Exchange API: Index error in getVariableValue; received handle: -1
   **   ~~~   ** The getVariableValue function will return 0 for now to allow the plugin to finish, then EnergyPlus will abort
   ** Severe  ** Data Exchange API: Index error in getVariableValue; received handle: -1
   **   ~~~   ** The getVariableValue function will return 0 for now to allow the plugin to finish, then EnergyPlus will abort
   ** Severe  ** Data Exchange API: Index error in getVariableValue; received handle: -1
   **   ~~~   ** The getVariableValue function will return 0 for now to allow the plugin to finish, then EnergyPlus will abort
   ** Severe  ** Data Exchange API: Index error in getVariableValue; received handle: -1
   **   ~~~   ** The getVariableValue function will return 0 for now to allow the plugin to finish, then EnergyPlus will abort
   ** Severe  ** Data Exchange API: Index error in getVariableValue; received handle: -1
   **   ~~~   ** The getVariableValue function will return 0 for now to allow the plugin to finish, then EnergyPlus will abort
   ** Severe  ** Data Exchange API: Index error in getVariableValue; received handle: -1
   **   ~~~   ** The getVariableValue function will return 0 for now to allow the plugin to finish, then EnergyPlus will abort
   ** Severe  ** Data Exchange API: Index error in getVariableValue; received handle: -1
   **   ~~~   ** The getVariableValue function will return 0 for now to allow the plugin to finish, then EnergyPlus will abort
   ** Severe  ** Data Exchange API: Index error in getVariableValue; received handle: -1
   **   ~~~   ** The getVariableValue function will return 0 for now to allow the plugin to finish, then EnergyPlus will abort
   ** Severe  ** Data Exchange API: Index error in getVariableValue; received handle: -1
   **   ~~~   ** The getVariableValue function will return 0 for now to allow the plugin to finish, then EnergyPlus will abort
   ** Severe  ** Data Exchange API: Index error in getVariableValue; received handle: -1
[...]
   ** Severe  ** Data Exchange API: Index error in getVariableValue; received handle: -1
   **   ~~~   ** The getVariableValue function will return 0 for now to allow the plugin to finish, then EnergyPlus will abort
   ** Severe  ** Data Exchange API: Index error in getVariableValue; received handle: -1
   **   ~~~   ** The getVariableValue function will return 0 for now to allow the plugin to finish, then EnergyPlus will abort
   ** Severe  ** Data Exchange API: Index error in getVariableValue; received handle: -1
   **   ~~~   ** The getVariableValue function will return 0 for now to allow the plugin to finish, then EnergyPlus will abort
   ** Severe  ** Data Exchange API: Index error in getVariableValue; received handle: -1
   **   ~~~   ** The getVariableValue function will return 0 for now to allow the plugin to finish, then EnergyPlus will abort
   ** Severe  ** Data Exchange API: Index error in getVariableValue; received handle: -1
   **   ~~~   ** The getVariableValue function will return 0 for now to allow the plugin to finish, then EnergyPlus will abort
   ** Severe  ** Data Exchange API: Index error in getVariableValue; received handle: -1
   **   ~~~   ** The getVariableValue function will return 0 for now to allow the plugin to finish, then EnergyPlus will abort
   ** Severe  ** Data Exchange API: Index error in getVariableValue; received handle: -1
   **   ~~~   ** The getVariableValue function will return 0 for now to allow the plugin to finish, then EnergyPlus will abort
   ** Severe  ** Data Exchange API: Index error in getVariableValue; received handle: -1
   **   ~~~   ** The getVariableValue function will return 0 for now to allow the plugin to finish, then EnergyPlus will abort
   ** Severe  ** Data Exchange API: Index error in getVariableValue; received handle: -1
   **   ~~~   ** The getVariableValue function will return 0 for now to allow the plugin to finish, then EnergyPlus will abort
   ** Severe  ** Data Exchange API: Index error in getVariableValue; received handle: -1
   **   ~~~   ** The getVariableValue function will return 0 for now to allow the plugin to finish, then EnergyPlus will abort
   ** Severe  ** Data Exchange API: Index error in getVariableValue; received handle: -1
   **   ~~~   ** The getVariableValue function will return 0 for now to allow the plugin to finish, then EnergyPlus will abort
   ** Severe  ** Data Exchange API: Index error in getVariableValue; received handle: -1
   **   ~~~   ** The getVariableValue function will return 0 for now to allow the plugin to finish, then EnergyPlus will abort
   ** Severe  ** Data Exchange API: Index error in getVariableValue; received handle: -1
   **   ~~~   ** The getVariableValue function will return 0 for now to allow the plugin to finish, then EnergyPlus will abort
   ** Severe  ** Data Exchange API: Index error in getVariableValue; received handle: -1
   **   ~~~   ** The getVariableValue function will return 0 for now to allow the plugin to finish, then EnergyPlus will abort
   ** Severe  ** Data Exchange API: Index error in getVariableValue; received handle: -1
   **   ~~~   ** The getVariableValue function will return 0 for now to allow the plugin to finish, then EnergyPlus will abort
   ** Severe  ** Data Exchange API: Index error in getVariableValue; received handle: -1
   **   ~~~   ** The getVariableValue function will return 0 for now to allow the plugin to finish, then EnergyPlus will abort
   ** Severe  ** Data Exchange API: Index error in getVariableValue; received handle: -1
   **   ~~~   ** The getVariableValue function will return 0 for now to allow the plugin to finish, then EnergyPlus will abort
   ** Severe  ** Data Exchange API: Index error in getVariableValue; received handle: -1
   **   ~~~   ** The getVariableValue function will return 0 for now to allow the plugin to finish, then EnergyPlus will abort
   ** Severe  ** Data Exchange API: Index error in getVariableValue; received handle: -1
   **   ~~~   ** The getVariableValue function will return 0 for now to allow the plugin to finish, then EnergyPlus will abort
   ** Severe  ** Data Exchange API: Index error in getVariableValue; received handle: -1
   **   ~~~   ** The getVariableValue function will return 0 for now to allow the plugin to finish, then EnergyPlus will abort
   ** Severe  ** Data Exchange API: Index error in getVariableValue; received handle: -1
   **   ~~~   ** The getVariableValue function will return 0 for now to allow the plugin to finish, then EnergyPlus will abort
   ** Severe  ** Data Exchange API: Index error in getVariableValue; received handle: -1
   **   ~~~   ** The getVariableValue function will return 0 for now to allow the plugin to finish, then EnergyPlus will abort
   ** Severe  ** Data Exchange API: Index error in getVariableValue; received handle: -1
   **   ~~~   ** The getVariableValue function will return 0 for now to allow the plugin to finish, then EnergyPlus will abort
   ** Severe  ** Data Exchange API: Index error in getVariableValue; received handle: -1
   **   ~~~   ** The getVariableValue function will return 0 for now to allow the plugin to finish, then EnergyPlus will abort
   ** Severe  ** Data Exchange API: Index error in getVariableValue; received handle: -1
   **   ~~~   ** The getVariableValue function will return 0 for now to allow the plugin to finish, then EnergyPlus will abort
   ** Severe  ** Data Exchange API: Index error in getVariableValue; received handle: -1
   **   ~~~   ** The getVariableValue function will return 0 for now to allow the plugin to finish, then EnergyPlus will abort
   ** Severe  ** Data Exchange API: Index error in getVariableValue; received handle: -1
   **   ~~~   ** The getVariableValue function will return 0 for now to allow the plugin to finish, then EnergyPlus will abort
   ** Severe  ** Data Exchange API: Index error in getVariableValue; received handle: -1
   **   ~~~   ** The getVariableValue function will return 0 for now to allow the plugin to finish, then EnergyPlus will abort
   ** Severe  ** Data Exchange API: Index error in getVariableValue; received handle: -1
   **   ~~~   ** The getVariableValue function will return 0 for now to allow the plugin to finish, then EnergyPlus will abort
   ** Severe  ** Data Exchange API: Index error in getVariableValue; received handle: -1
   **   ~~~   ** The getVariableValue function will return 0 for now to allow the plugin to finish, then EnergyPlus will abort
   ** Severe  ** Data Exchange API: Index error in getVariableValue; received handle: -1
   **   ~~~   ** The getVariableValue function will return 0 for now to allow the plugin to finish, then EnergyPlus will abort
   ** Severe  ** Data Exchange API: Index error in getVariableValue; received handle: -1
   **   ~~~   ** The getVariableValue function will return 0 for now to allow the plugin to finish, then EnergyPlus will abort
   ** Severe  ** Data Exchange API: Index error in getVariableValue; received handle: -1
   **   ~~~   ** The getVariableValue function will return 0 for now to allow the plugin to finish, then EnergyPlus will abort
   ** Severe  ** Data Exchange API: Index error in getVariableValue; received handle: -1
   **   ~~~   ** The getVariableValue function will return 0 for now to allow the plugin to finish, then EnergyPlus will abort
   ** Severe  ** Data Exchange API: Index error in getVariableValue; received handle: -1
   **   ~~~   ** The getVariableValue function will return 0 for now to allow the plugin to finish, then EnergyPlus will abort
   ** Severe  ** Data Exchange API: Index error in getVariableValue; received handle: -1
   **   ~~~   ** The getVariableValue function will return 0 for now to allow the plugin to finish, then EnergyPlus will abort
   ** Severe  ** Data Exchange API: Index error in getVariableValue; received handle: -1
   **   ~~~   ** The getVariableValue function will return 0 for now to allow the plugin to finish, then EnergyPlus will abort
   ** Severe  ** Data Exchange API: Index error in getVariableValue; received handle: -1
   **   ~~~   ** The getVariableValue function will return 0 for now to allow the plugin to finish, then EnergyPlus will abort
   ** Severe  ** Data Exchange API: Index error in getVariableValue; received handle: -1
   **   ~~~   ** The getVariableValue function will return 0 for now to allow the plugin to finish, then EnergyPlus will abort
   ** Severe  ** Data Exchange API: Index error in getVariableValue; received handle: -1
   **   ~~~   ** The getVariableValue function will return 0 for now to allow the plugin to finish, then EnergyPlus will abort
   ** Severe  ** Data Exchange API: Index error in getVariableValue; received handle: -1
   **   ~~~   ** The getVariableValue function will return 0 for now to allow the plugin to finish, then EnergyPlus will abort
   ** Severe  ** Data Exchange API: Index error in getVariableValue; received handle: -1
   **   ~~~   ** The getVariableValue function will return 0 for now to allow the plugin to finish, then EnergyPlus will abort
   ** Severe  ** Data Exchange API: Index error in getVariableValue; received handle: -1
   **   ~~~   ** The getVariableValue function will return 0 for now to allow the plugin to finish, then EnergyPlus will abort
   ** Severe  ** Data Exchange API: Index error in getVariableValue; received handle: -1
   **   ~~~   ** The getVariableValue function will return 0 for now to allow the plugin to finish, then EnergyPlus will abort
   ** Severe  ** Data Exchange API: Index error in getVariableValue; received handle: -1
   **   ~~~   ** The getVariableValue function will return 0 for now to allow the plugin to finish, then EnergyPlus will abort
   ** Severe  ** Data Exchange API: Index error in getVariableValue; received handle: -1
   **   ~~~   ** The getVariableValue function will return 0 for now to allow the plugin to finish, then EnergyPlus will abort
   ** Severe  ** Data Exchange API: Index error in getVariableValue; received handle: -1
   **   ~~~   ** The getVariableValue function will return 0 for now to allow the plugin to finish, then EnergyPlus will abort
   ** Severe  ** Data Exchange API: Index error in getVariableValue; received handle: -1
   **   ~~~   ** The getVariableValue function will return 0 for now to allow the plugin to finish, then EnergyPlus will abort
   ** Severe  ** Data Exchange API: Index error in getVariableValue; received handle: -1
   **   ~~~   ** The getVariableValue function will return 0 for now to allow the plugin to finish, then EnergyPlus will abort
   ** Severe  ** Data Exchange API: Index error in getVariableValue; received handle: -1
   **   ~~~   ** The getVariableValue function will return 0 for now to allow the plugin to finish, then EnergyPlus will abort
   ** Severe  ** Data Exchange API: Index error in getVariableValue; received handle: -1
   **   ~~~   ** The getVariableValue function will return 0 for now to allow the plugin to finish, then EnergyPlus will abort
   ** Severe  ** Data Exchange API: Index error in getVariableValue; received handle: -1
   **   ~~~   ** The getVariableValue function will return 0 for now to allow the plugin to finish, then EnergyPlus will abort
   ** Severe  ** Data Exchange API: Index error in getVariableValue; received handle: -1
   **   ~~~   ** The getVariableValue function will return 0 for now to allow the plugin to finish, then EnergyPlus will abort
   ** Severe  ** Data Exchange API: Index error in getVariableValue; received handle: -1
   **   ~~~   ** The getVariableValue function will return 0 for now to allow the plugin to finish, then EnergyPlus will abort
   ** Severe  ** Data Exchange API: Index error in getVariableValue; received handle: -1
   **   ~~~   ** The getVariableValue function will return 0 for now to allow the plugin to finish, then EnergyPlus will abort
   ** Severe  ** Data Exchange API: Index error in getVariableValue; received handle: -1
   **   ~~~   ** The getVariableValue function will return 0 for now to allow the plugin to finish, then EnergyPlus will abort
   ** Severe  ** Data Exchange API: Index error in getVariableValue; received handle: -1
   **   ~~~   ** The getVariableValue function will return 0 for now to allow the plugin to finish, then EnergyPlus will abort
   ** Severe  ** Data Exchange API: Index error in getVariableValue; received handle: -1
   **   ~~~   ** The getVariableValue function will return 0 for now to allow the plugin to finish, then EnergyPlus will abort
   ** Severe  ** Data Exchange API: Index error in getVariableValue; received handle: -1
   **   ~~~   ** The getVariableValue function will return 0 for now to allow the plugin to finish, then EnergyPlus will abort
   ** Severe  ** Data Exchange API: Index error in getVariableValue; received handle: -1
   **   ~~~   ** The getVariableValue function will return 0 for now to allow the plugin to finish, then EnergyPlus will abort
   ** Severe  ** Data Exchange API: Index error in getVariableValue; received handle: -1
   **   ~~~   ** The getVariableValue function will return 0 for now to allow the plugin to finish, then EnergyPlus will abort
   ** Severe  ** Data Exchange API: Index error in getVariableValue; received handle: -1
   **   ~~~   ** The getVariableValue function will return 0 for now to allow the plugin to finish, then EnergyPlus will abort
   ** Severe  ** Data Exchange API: Index error in getVariableValue; received handle: -1
   **   ~~~   ** The getVariableValue function will return 0 for now to allow the plugin to finish, then EnergyPlus will abort
   ** Severe  ** Data Exchange API: Index error in getVariableValue; received handle: -1
   **   ~~~   ** The getVariableValue function will return 0 for now to allow the plugin to finish, then EnergyPlus will abort
   ** Severe  ** Data Exchange API: Index error in getVariableValue; received handle: -1
   **   ~~~   ** The getVariableValue function will return 0 for now to allow the plugin to finish, then EnergyPlus will abort
   ** Severe  ** Data Exchange API: Index error in getVariableValue; received handle: -1
   **   ~~~   ** The getVariableValue function will return 0 for now to allow the plugin to finish, then EnergyPlus will abort
   ** Severe  ** Data Exchange API: Index error in getVariableValue; received handle: -1
   **   ~~~   ** The getVariableValue function will return 0 for now to allow the plugin to finish, then EnergyPlus will abort
   ** Severe  ** Data Exchange API: Index error in getVariableValue; received handle: -1
   **   ~~~   ** The getVariableValue function will return 0 for now to allow the plugin to finish, then EnergyPlus will abort
   ** Severe  ** Data Exchange API: Index error in getVariableValue; received handle: -1
   **   ~~~   ** The getVariableValue function will return 0 for now to allow the plugin to finish, then EnergyPlus will abort
   ** Severe  ** Data Exchange API: Index error in getVariableValue; received handle: -1
   **   ~~~   ** The getVariableValue function will return 0 for now to allow the plugin to finish, then EnergyPlus will abort
   ** Severe  ** Data Exchange API: Index error in getVariableValue; received handle: -1
   **   ~~~   ** The getVariableValue function will return 0 for now to allow the plugin to finish, then EnergyPlus will abort
   ** Severe  ** Data Exchange API: Index error in getVariableValue; received handle: -1
   **   ~~~   ** The getVariableValue function will return 0 for now to allow the plugin to finish, then EnergyPlus will abort
   ** Severe  ** Data Exchange API: Index error in getVariableValue; received handle: -1
   **   ~~~   ** The getVariableValue function will return 0 for now to allow the plugin to finish, then EnergyPlus will abort
   ** Severe  ** Data Exchange API: Index error in getVariableValue; received handle: -1
   **   ~~~   ** The getVariableValue function will return 0 for now to allow the plugin to finish, then EnergyPlus will abort
   ** Severe  ** Data Exchange API: Index error in getVariableValue; received handle: -1
   **   ~~~   ** The getVariableValue function will return 0 for now to allow the plugin to finish, then EnergyPlus will abort
   ** Severe  ** Data Exchange API: Index error in getVariableValue; received handle: -1
   **   ~~~   ** The getVariableValue function will return 0 for now to allow the plugin to finish, then EnergyPlus will abort
   ** Severe  ** Data Exchange API: Index error in getVariableValue; received handle: -1
   **   ~~~   ** The getVariableValue function will return 0 for now to allow the plugin to finish, then EnergyPlus will abort
   ** Severe  ** Data Exchange API: Index error in getVariableValue; received handle: -1
   **   ~~~   ** The getVariableValue function will return 0 for now to allow the plugin to finish, then EnergyPlus will abort
   ** Severe  ** Data Exchange API: Index error in getVariableValue; received handle: -1
   **   ~~~   ** The getVariableValue function will return 0 for now to allow the plugin to finish, then EnergyPlus will abort
   ** Severe  ** Data Exchange API: Index error in getVariableValue; received handle: -1
   **   ~~~   ** The getVariableValue function will return 0 for now to allow the plugin to finish, then EnergyPlus will abort
   ** Severe  ** Data Exchange API: Index error in getVariableValue; received handle: -1
   **   ~~~   ** The getVariableValue function will return 0 for now to allow the plugin to finish, then EnergyPlus will abort
   ** Severe  ** Data Exchange API: Index error in getVariableValue; received handle: -1
   **   ~~~   ** The getVariableValue function will return 0 for now to allow the plugin to finish, then EnergyPlus will abort
   ** Severe  ** Data Exchange API: Index error in getVariableValue; received handle: -1
   **   ~~~   ** The getVariableValue function will return 0 for now to allow the plugin to finish, then EnergyPlus will abort
   ** Warning ** Calculated design heating load for zone=SPACE5-1 is zero.
   **   ~~~   ** Check Sizing:Zone and ZoneControl:Thermostat inputs.
   ************* Beginning System Sizing Calculations
   ************* Beginning Plant Sizing Calculations
   ** Warning ** The design coil load is zero for Coil:Heating:Water SPACE4-1 ZONE COIL
   **   ~~~   ** The autosize value for maximum water flow rate is zero
   **   ~~~   ** To change this, input a value for UA, change the heating design day, or raise the
   **   ~~~   **   system heating design supply air temperature. Also check to make sure the Preheat
   **   ~~~   **   Design Temperature is not the same as the Central Heating Design Supply Air Temperature. 
   ** Warning ** The design coil load is zero for Coil:Heating:Water SPACE5-1 ZONE COIL
   **   ~~~   ** The autosize value for maximum water flow rate is zero
   **   ~~~   ** To change this, input a value for UA, change the heating design day, or raise the
   **   ~~~   **   system heating design supply air temperature. Also check to make sure the Preheat
   **   ~~~   **   Design Temperature is not the same as the Central Heating Design Supply Air Temperature. 
   ************* Testing Individual Branch Integrity
   ************* All Branches passed integrity testing
   ************* Testing Individual Supply Air Path Integrity
   ************* All Supply Air Paths passed integrity testing
   ************* Testing Individual Return Air Path Integrity
   ************* All Return Air Paths passed integrity testing
   ************* No node connection errors were found.
   ************* Beginning Simulation
   ************* Simulation Error Summary *************
   ************* EnergyPlus Warmup Error Summary. During Warmup: 0 Warning; 0 Severe Errors.
   ************* EnergyPlus Sizing Error Summary. During Sizing: 2 Warning; 3489 Severe Errors.
   ************* EnergyPlus Completed Successfully-- 4 Warning; 3489 Severe Errors; Elapsed Time=00hr 00min 41.65sec
