Program Version,EnergyPlus, Version 24.1.0-9d7789a3ac, YMD=2026.01.18 02:27,
   ************* Beginning Zone Sizing Calculations
   ** Warning ** Weather file location will be used rather than entered (IDF) Location object.
   **   ~~~   ** ..Location object=CHICAGO_IL_USA TMY2-94846
   **   ~~~   ** ..Weather File Location=Rabat-Sale.AP RK MAR SRC-TMYx WMO#=601350
   **   ~~~   ** ..due to location differences, Latitude difference=[7.73] degrees, Longitude difference=[81.00] degrees.
   **   ~~~   ** ..Time Zone difference=[7.0] hour(s), Elevation difference=[55.74] percent, [105.90] meters.
   ** Severe  ** Data Exchange API: Index error in getVariableValue; received handle: -1
   **   ~~~   ** The getVariableValue function will return 0 for now to allow the plugin to finish, then EnergyPlus will abort
   ** Severe  ** Data Exchange API: Index error in getVariableValue; received handle: -1
   **   ~~~   ** The getVariableValue function will return 0 for now to allow the plugin to finish, then EnergyPlus will abort
   ** Severe  ** Data Exchange API: Index error in getVariableValue; received handle: 22
   **   ~~~   ** The getVariableValue function will return 0 for now to allow the plugin to finish, then EnergyPlus will abort
   ** Severe  ** Data Exchange API: Index error in getVariableValue; received handle: 23
   **   ~~~   ** The getVariableValue function will return 0 for now to allow the plugin to finish, then EnergyPlus will abort
   ** Severe  ** Data Exchange API: Index error in getVariableValue; received handle: 27
   **   ~~~   ** The getVariableValue function will return 0 for now to allow the plugin to finish, then EnergyPlus will abort
   ** Severe  ** Data Exchange API: Index error in getVariableValue; received handle: 28
   **   ~~~   ** The getVariableValue function will return 0 for now to allow the plugin to finish, then EnergyPlus will abort
   ** Severe  ** Data Exchange API: Index error in getVariableValue; received handle: 32
   **   ~~~   ** The getVariableValue function will return 0 for now to allow the plugin to finish, then EnergyPlus will abort
   ** Severe  ** Data Exchange API: Index error in getVariableValue; received handle: 33
   **   ~~~   ** The getVariableValue function will return 0 for now to allow the plugin to finish, then EnergyPlus will abort
   ** Severe  ** Data Exchange API: Index error in getVariableValue; received handle: 37
   **   ~~~   ** The getVariableValue function will return 0 for now to allow the plugin to finish, then EnergyPlus will abort
   ** Severe  ** Data Exchange API: Index error in getVariableValue; received handle: 38
   **   ~~~   ** The getVariableValue function will return 0 for now to allow the plugin to finish, then EnergyPlus will abort
   ** Severe  ** Data Exchange API: Index error in getVariableValue; received handle: 42
   **   ~~~   ** The getVariableValue function will return 0 for now to allow the plugin to finish, then EnergyPlus will abort
   ** Severe  ** Data Exchange API: Index error in getVariableValue; received handle: 43
   **   ~~~   ** The getVariableValue function will return 0 for now to allow the plugin to finish, then EnergyPlus will abort
   ** Severe  ** Data Exchange API: index error in setActuatorValue; received handle: 413
   **   ~~~   ** The setActuatorValue function will return to allow the plugin to finish, then EnergyPlus will abort
   ** Severe  ** Data Exchange API: index error in setActuatorValue; received handle: 415
   **   ~~~   ** The setActuatorValue function will return to allow the plugin to finish, then EnergyPlus will abort
   ** Severe  ** Data Exchange API: index error in setActuatorValue; received handle: 417
   **   ~~~   ** The setActuatorValue function will return to allow the plugin to finish, then EnergyPlus will abort
   ** Severe  ** Data Exchange API: index error in setActuatorValue; received handle: 419
   **   ~~~   ** The setActuatorValue function will return to allow the plugin to finish, then EnergyPlus will abort
   ** Severe  ** Data Exchange API: index error in setActuatorValue; received handle: 421
   **   ~~~   ** The setActuatorValue function will return to allow the plugin to finish, then EnergyPlus will abort
   ** Severe  ** Data Exchange API: Index error in getVariableValue; received handle: -1
   **   ~~~   ** The getVariableValue function will return 0 for now to allow the plugin to finish, then EnergyPlus will abort
   ** Severe  ** Data Exchange API: Index error in getVariableValue; received handle: -1
   **   ~~~   ** The getVariableValue function will return 0 for now to allow the plugin to finish, then EnergyPlus will abort
   ** Severe  ** Data Exchange API: Index error in getVariableValue; received handle: -1
   **   ~~~   ** The getVariableValue function will return 0 for now to allow the plugin to finish, then EnergyPlus will abort
   ** Severe  ** Data Exchange API: Index error in getVariableValue; received handle: -1
   **   ~~~   ** The getVariableValue function will return 0 for now to allow the plugin to finish, then EnergyPlus will abort
   ** Severe  ** Data Exchange API: Index error in getVariableValue; received handle: -1
   **   ~~~   ** The getVariableValue function will return 0 for now to allow the plugin to finish, then EnergyPlus will abort
   ** Severe  ** Data Exchange API: Index error in getVariableValue; received handle: -1
   **   ~~~   ** The getVariableValue function will return 0 for now to allow the plugin to finish, then EnergyPlus will abort
   ** Severe  ** Data Exchange API: Index error in getVariableValue; received handle: -1
   **   ~~~   ** The getVariableValue function will return 0 for now to allow the plugin to finish, then EnergyPlus will abort
   ** Severe  ** Data Exchange API: Index error in getVariableValue; received handle: -1
   **   ~~~   ** The getVariableValue function will return 0 for now to allow the plugin to finish, then EnergyPlus will abort
   ** Severe  ** Data Exchange API: Index error in getVariableValue; received handle: -1
   **   ~~~   ** The getVariableValue function will return 0 for now to allow the plugin to finish, then EnergyPlus will abort
   ** Severe  ** Data Exchange API: Index error in getVariableValue; received handle: -1
   **   ~~~   ** The getVariableValue function will return 0 for now to allow the plugin to finish, then EnergyPlus will abort
   ** Severe  ** Data Exchange API: Index error in getVariableValue; received handle: -1
   **   ~~~   ** The getVariableValue function will return 0 for now to allow the plugin to finish, then EnergyPlus will abort
   ** Severe  ** Data Exchange API: Index error in getVariableValue; received handle: -1
   **   ~~~   ** The getVariableValue function will return 0 for now to allow the plugin to finish, then EnergyPlus will abort
   ** Severe  ** Data Exchange API: Index error in getVariableValue; received handle: -1
   **   ~~~   ** The getVariableValue function will return 0 for now to allow the plugin to finish, then EnergyPlus will abort
   ** Severe  ** Data Exchange API: Index error in getVariableValue; received handle: -1
   **   ~~~   ** The getVariableValue function will return 0 for now to allow the plugin to finish, then EnergyPlus will abort
   ** Severe  ** Data Exchange API: Index error in getVariableValue; received handle: -1
   **   ~~~   ** The getVariableValue function will return 0 for now to allow the plugin to finish, then EnergyPlus will abort
   ** Severe  ** Data Exchange API: Index error in getVariableValue; received handle: -1
   **   ~~~   ** The getVariableValue function will return 0 for now to allow the plugin to finish, then EnergyPlus will abort
   ** Severe  ** Data Exchange API: Index error in getVariableValue; received handle: -1
   **   ~~~   ** The getVariableValue function will return 0 for now to allow the plugin to finish, then EnergyPlus will abort
   ** Severe  ** Data Exchange API: Index error in getVariableValue; received handle: -1
   **   ~~~   ** The getVariableValue function will return 0 for now to allow the plugin to finish, then EnergyPlus will abort
   ** Severe  ** Data Exchange API: Index error in getVariableValue; received handle: -1
   **   ~~~   ** The getVariableValue function will return 0 for now to allow the plugin to finish, then EnergyPlus will abort
   ** Severe  ** Data Exchange API: Index error in getVariableValue; received handle: -1
   **   ~~~   ** The getVariableValue function will return 0 for now to allow the plugin to finish, then EnergyPlus will abort
   ** Severe  ** Data Exchange API: Index error in getVariableValue; received handle: -1
   **   ~~~   ** The getVariableValue function will return 0 for now to allow the plugin to finish, then EnergyPlus will abort
   ** Severe  ** Data Exchange API: Index error in getVariableValue; received handle: -1
   **   ~~~   ** The getVariableValue function will return 0 for now to allow the plugin to finish, then EnergyPlus will abort
   ** Severe  ** Data Exchange API: Index error in getVariableValue; received handle: -1
   **   ~~~   ** The getVariableValue function will return 0 for now to allow the plugin to finish, then EnergyPlus will abort
   ** Severe  ** Data Exchange API: Index error in getVariableValue; received handle: -1
   **   ~~~   ** The getVariableValue function will return 0 for now to allow the plugin to finish, then EnergyPlus will abort
   ** Severe  ** Data Exchange API: Index error in getVariableValue; received handle: -1
   **   ~~~   ** The getVariableValue function will return 0 for now to allow the plugin to finish, then EnergyPlus will abort
   ** Severe  ** Data Exchange API: Index error in getVariableValue; received handle: -1
   **   ~~~   ** The getVariableValue function will return 0 for now to allow the plugin to finish, then EnergyPlus will abort
   ** Severe  ** Data Exchange API: Index error in getVariableValue; received handle: -1
   **   ~~~   ** The getVariableValue function will return 0 for now to allow the plugin to finish, then EnergyPlus will abort
   ** Severe  ** Data Exchange API: Index error in getVariableValue; received handle: -1
   **   ~~~   ** The getVariableValue function will return 0 for now to allow the plugin to finish, then EnergyPlus will abort
   ** Severe  ** Data Exchange API: Index error in getVariableValue; received handle: -1
   **   ~~~   ** The getVariableValue function will return 0 for now to allow the plugin to finish, then EnergyPlus will abort
   ** Severe  ** Data Exchange API: Index error in getVariableValue; received handle: -1
   **   ~~~   ** The getVariableValue function will return 0 for now to allow the plugin to finish, then EnergyPlus will abort
   ** Severe  ** Data Exchange API: Index error in getVariableValue; received handle: -1
   **   ~~~   ** The getVariableValue function will return 0 for now to allow the plugin to finish, then EnergyPlus will abort
   ** Severe  ** Data Exchange API: Index error in getVariableValue; received handle: -1
   **   ~~~   ** The getVariableValue function will return 0 for now to allow the plugin to finish, then EnergyPlus will abort
   ** Severe  ** Data Exchange API: Index error in getVariableValue; received handle: -1
   **   ~~~   ** The getVariableValue function will return 0 for now to allow the plugin to finish, then EnergyPlus will abort
   ** Severe  ** Data Exchange API: Index error in getVariableValue; received handle: -1
   **   ~~~   ** The getVariableValue function will return 0 for now to allow the plugin to finish, then EnergyPlus will abort
   ** Severe  ** Data Exchange API: Index error in getVariableValue; received handle: -1
   **   ~~~   ** The getVariableValue function will return 0 for now to allow the plugin to finish, then EnergyPlus will abort
   ** Severe  ** Data Exchange API: Index error in getVariableValue; received handle: -1
   **   ~~~   ** The getVariableValue function will return 0 for now to allow the plugin to finish, then EnergyPlus will abort
   ** Severe  ** Data Exchange API: Index error in getVariableValue; received handle: -1
   **   ~~~   ** The getVariableValue function will return 0 for now to allow the plugin to finish, then EnergyPlus will abort
   ** Severe  ** Data Exchange API: Index error in getVariableValue; received handle: -1
   **   ~~~   ** The getVariableValue function will return 0 for now to allow the plugin to finish, then EnergyPlus will abort
   ** Severe  ** Data Exchange API: Index error in getVariableValue; received handle: -1
   **   ~~~   ** The getVariableValue function will return 0 for now to allow the plugin to finish, then EnergyPlus will abort
   ** Severe  ** Data Exchange API: Index error in getVariableValue; received handle: -1
   **   ~~~   ** The getVariableValue function will return 0 for now to allow the plugin to finish, then EnergyPlus will abort
   ** Severe  ** Data Exchange API: Index error in getVariableValue; received handle: -1
   **   ~~~   ** The getVariableValue function will return 0 for now to allow the plugin to finish, then EnergyPlus will abort
   ** Severe  ** Data Exchange API: Index error in getVariableValue; received handle: -1
   **   ~~~   ** The getVariableValue function will return 0 for now to allow the plugin to finish, then EnergyPlus will abort
   ** Severe  ** Data Exchange API: Index error in getVariableValue; received handle: -1
   **   ~~~   ** The getVariableValue function will return 0 for now to allow the plugin to finish, then EnergyPlus will abort
   ** Severe  ** Data Exchange API: Index error in getVariableValue; received handle: -1
   **   ~~~   ** The getVariableValue function will return 0 for now to allow the plugin to finish, then EnergyPlus will abort
   ** Severe  ** Data Exchange API: Index error in getVariableValue; received handle: -1
   **   ~~~   ** The getVariableValue function will return 0 for now to allow the plugin to finish, then EnergyPlus will abort
   ** Severe  ** Data Exchange API: Index error in getVariableValue; received handle: -1
   **   ~~~   ** The getVariableValue function will return 0 for now to allow the plugin to finish, then EnergyPlus will abort
   ** Severe  ** Data Exchange API: Index error in getVariableValue; received handle: -1
   **   ~~~   ** The getVariableValue function will return 0 for now to allow the plugin to finish, then EnergyPlus will abort
   ** Severe  ** Data Exchange API: Index error in getVariableValue; received handle: -1
   **   ~~~   ** The getVariableValue function will return 0 for now to allow the plugin to finish, then EnergyPlus will abort
   ** Severe  ** Data Exchange API: Index error in getVariableValue; received handle: -1
   **   ~~~   ** The getVariableValue function will return 0 for now to allow the plugin to finish, then EnergyPlus will abort
   ** Severe  ** Data Exchange API: Index error in getVariableValue; received handle: -1
   **   ~~~   ** The getVariableValue function will return 0 for now to allow the plugin to finish, then EnergyPlus will abort
   ** Severe  ** Data Exchange API: Index error in getVariableValue; received handle: -1
   **   ~~~   ** The getVariableValue function will return 0 for now to allow the plugin to finish, then EnergyPlus will abort
   ** Severe  ** Data Exchange API: Index error in getVariableValue; received handle: -1
   **   ~~~   ** The getVariableValue function will return 0 for now to allow the plugin to finish, then EnergyPlus will abort
   ** Severe  ** Data Exchange API: Index error in getVariableValue; received handle: -1
   **   ~~~   ** The getVariableValue function will return 0 for now to allow the plugin to finish, then EnergyPlus will abort
   ** Severe  ** Data Exchange API: Index error in getVariableValue; received handle: -1
   **   ~~~   ** The getVariableValue function will return 0 for now to allow the plugin to finish, then EnergyPlus will abort
   ** Severe  ** Data Exchange API: Index error in getVariableValue; received handle: -1
   **   ~~~   ** The getVariableValue function will return 0 for now to allow the plugin to finish, then EnergyPlus will abort
   ** Severe  ** Data Exchange API: Index error in getVariableValue; received handle: -1
   **   ~~~   ** The getVariableValue function will return 0 for now to allow the plugin to finish, then EnergyPlus will abort
   ** Severe  ** Data Exchange API: Index error in getVariableValue; received handle: -1
   **   ~~~   ** The getVariableValue function will return 0 for now to allow the plugin to finish, then EnergyPlus will abort
   ** Severe  ** Data Exchange API: Index error in getVariableValue; received handle: -1
   **   ~~~   ** The getVariableValue function will return 0 for now to allow the plugin to finish, then EnergyPlus will abort
   ** Severe  ** Data Exchange API: Index error in getVariableValue; received handle: -1
   **   ~~~   ** The getVariableValue function will return 0 for now to allow the plugin to finish, then EnergyPlus will abort
   ** Severe  ** Data Exchange API: Index error in getVariableValue; received handle: -1
   **   ~~~   ** The getVariableValue function will return 0 for now to allow the plugin to finish, then EnergyPlus will abort
   ** Severe  ** Data Exchange API: Index error in getVariableValue; received handle: -1
   **   ~~~   ** The getVariableValue function will return 0 for now to allow the plugin to finish, then EnergyPlus will abort
   ** Severe  ** Data Exchange API: Index error in getVariableValue; received handle: -1
   **   ~~~   ** The getVariableValue function will return 0 for now to allow the plugin to finish, then EnergyPlus will abort
   ** Severe  ** Data Exchange API: Index error in getVariableValue; received handle: -1
   **   ~~~   ** The getVariableValue function will return 0 for now to allow the plugin to finish, then EnergyPlus will abort
   ** Severe  ** Data Exchange API: Index error in getVariableValue; received handle: -1
   **   ~~~   ** The getVariableValue function will return 0 for now to allow the plugin to finish, then EnergyPlus will abort
   ** Severe  ** Data Exchange API: Index error in getVariableValue; received handle: -1
   **   ~~~   ** The getVariableValue function will return 0 for now to allow the plugin to finish, then EnergyPlus will abort
   ** Severe  ** Data Exchange API: Index error in getVariableValue; received handle: -1
   **   ~~~   ** The getVariableValue function will return 0 for now to allow the plugin to finish, then EnergyPlus will abort
   ** Severe  ** Data Exchange API: Index error in getVariableValue; received handle: -1
   **   ~~~   ** The getVariableValue function will return 0 for now to allow the plugin to finish, then EnergyPlus will abort
   ** Severe  ** Data Exchange API: Index error in getVariableValue; received handle: -1
   **   ~~~   ** The getVariableValue function will return 0 for now to allow the plugin to finish, then EnergyPlus will abort
   ** Severe  ** Data Exchange API: Index error in getVariableValue; received handle: -1
   **   ~~~   ** The getVariableValue function will return 0 for now to allow the plugin to finish, then EnergyPlus will abort
   ** Severe  ** Data Exchange API: Index error in getVariableValue; received handle: -1
   **   ~~~   ** The getVariableValue function will return 0 for now to allow the plugin to finish, then EnergyPlus will abort
   ** Severe  ** Data Exchange API: Index error in getVariableValue; received handle: -1
   **   ~~~   ** The getVariableValue function will return 0 for now to allow the plugin to finish, then EnergyPlus will abort
   ** Severe  ** Data Exchange API: Index error in getVariableValue; received handle: -1
   **   ~~~   ** The getVariableValue function will return 0 for now to allow the plugin to finish, then EnergyPlus will abort
   ** Severe  ** Data Exchange API: Index error in getVariableValue; received handle: -1
   **   ~~~   ** The getVariableValue function will return 0 for now to allow the plugin to finish, then EnergyPlus will abort
   ** Severe  ** Data Exchange API: Index error in getVariableValue; received handle: -1
   **   ~~~   ** The getVariableValue function will return 0 for now to allow the plugin to finish, then EnergyPlus will abort
   ** Severe  ** Data Exchange API: Index error in getVariableValue; received handle: -1
   **   ~~~   ** The getVariableValue function will return 0 for now to allow the plugin to finish, then EnergyPlus will abort
   ** Severe  ** Data Exchange API: Index error in getVariableValue; received handle: -1
   **   ~~~   ** The getVariableValue function will return 0 for now to allow the plugin to finish, then EnergyPlus will abort
   ** Severe  ** Data Exchange API: Index error in getVariableValue; received handle: -1
   **   ~~~   ** The getVariableValue function will return 0 for now to allow the plugin to finish, then EnergyPlus will abort
   ** Severe  ** Data Exchange API: Index error in getVariableValue; received handle: -1
   **   ~~~   ** The getVariableValue function will return 0 for now to allow the plugin to finish, then EnergyPlus will abort
   ** Severe  ** Data Exchange API: Index error in getVariableValue; received handle: -1
   **   ~~~   ** The getVariableValue function will return 0 for now to allow the plugin to finish, then EnergyPlus will abort
   ** Severe  ** Data Exchange API: Index error in getVariableValue; received handle: -1
   **   ~~~   ** The getVariableValue function will return 0 for now to allow the plugin to finish, then EnergyPlus will abort
   ** Severe  ** Data Exchange API: Index error in getVariableValue; received handle: -1
   **   ~~~   ** The getVariableValue function will return 0 for now to allow the plugin to finish, then EnergyPlus will abort
   ** Severe  ** Data Exchange API: Index error in getVariableValue; received handle: -1
   **   ~~~   ** The getVariableValue function will return 0 for now to allow the plugin to finish, then EnergyPlus will abort
   ** Severe  ** Data Exchange API: Index error in getVariableValue; received handle: -1
   **   ~~~   ** The getVariableValue function will return 0 for now to allow the plugin to finish, then EnergyPlus will abort
   ** Severe  ** Data Exchange API: Index error in getVariableValue; received handle: -1
   **   ~~~   ** The getVariableValue function will return 0 for now to allow the plugin to finish, then EnergyPlus will abort
   ** Severe  ** Data Exchange API: Index error in getVariableValue; received handle: -1
   **   ~~~   ** The getVariableValue function will return 0 for now to allow the plugin to finish, then EnergyPlus will abort
   ** Severe  ** Data Exchange API: Index error in getVariableValue; received handle: -1
   **   ~~~   ** The getVariableValue function will return 0 for now to allow the plugin to finish, then EnergyPlus will abort
   ** Severe  ** Data Exchange API: Index error in getVariableValue; received handle: -1
   **   ~~~   ** The getVariableValue function will return 0 for now to allow the plugin to finish, then EnergyPlus will abort
   ** Severe  ** Data Exchange API: Index error in getVariableValue; received handle: -1
   **   ~~~   ** The getVariableValue function will return 0 for now to allow the plugin to finish, then EnergyPlus will abort
   ** Severe  ** Data Exchange API: Index error in getVariableValue; received handle: -1
   **   ~~~   ** The getVariableValue function will return 0 for now to allow the plugin to finish, then EnergyPlus will abort
   ** Severe  ** Data Exchange API: Index error in getVariableValue; received handle: -1
   **   ~~~   ** The getVariableValue function will return 0 for now to allow the plugin to finish, then EnergyPlus will abort
   ** Severe  ** Data Exchange API: Index error in getVariableValue; received handle: -1
   **   ~~~   ** The getVariableValue function will return 0 for now to allow the plugin to finish, then EnergyPlus will abort
   ** Severe  ** Data Exchange API: Index error in getVariableValue; received handle: -1
   **   ~~~   ** The getVariableValue function will return 0 for now to allow the plugin to finish, then EnergyPlus will abort
   ** Severe  ** Data Exchange API: Index error in getVariableValue; received handle: -1
   **   ~~~   ** The getVariableValue function will return 0 for now to allow the plugin to finish, then EnergyPlus will abort
   ** Severe  ** Data Exchange API: Index error in getVariableValue; received handle: -1
   **   ~~~   ** The getVariableValue function will return 0 for now to allow the plugin to finish, then EnergyPlus will abort
   ** Severe  ** Data Exchange API: Index error in getVariableValue; received handle: -1
   **   ~~~   ** The getVariableValue function will return 0 for now to allow the plugin to finish, then EnergyPlus will abort
   ** Severe  ** Data Exchange API: Index error in getVariableValue; received handle: -1
   **   ~~~   ** The getVariableValue function will return 0 for now to allow the plugin to finish, then EnergyPlus will abort
   ** Severe  ** Data Exchange API: Index error in getVariableValue; received handle: -1
   **   ~~~   ** The getVariableValue function will return 0 for now to allow the plugin to finish, then EnergyPlus will abort
   ** Severe  ** Data Exchange API: Index error in getVariableValue; received handle: -1
   **   ~~~   ** The getVariableValue function will return 0 for now to allow the plugin to finish, then EnergyPlus will abort
   ** Severe  ** Data Exchange API: Index error in getVariableValue; received handle: -1
   **   ~~~   ** The getVariableValue function will return 0 for now to allow the plugin to finish, then EnergyPlus will abort
   ** Severe  ** Data Exchange API: Index error in getVariableValue; received handle: -1
   **   ~~~   ** The getVariableValue function will return 0 for now to allow the plugin to finish, then EnergyPlus will abort
   ** Severe  ** Data Exchange API: Index error in getVariableValue; received handle: -1
   **   ~~~   ** The getVariableValue function will return 0 for now to allow the plugin to finish, then EnergyPlus will abort
   ** Severe  ** Data Exchange API: Index error in getVariableValue; received handle: -1
   **   ~~~   ** The getVariableValue function will return 0 for now to allow the plugin to finish, then EnergyPlus will abort
   ** Severe  ** Data Exchange API: Index error in getVariableValue; received handle: -1
   **   ~~~   ** The getVariableValue function will return 0 for now to allow the plugin to finish, then EnergyPlus will abort
   ** Severe  ** Data Exchange API: Index error in getVariableValue; received handle: -1
   **   ~~~   ** The getVariableValue function will return 0 for now to allow the plugin to finish, then EnergyPlus will abort
   ** Severe  ** Data Exchange API: Index error in getVariableValue; received handle: -1
   **   ~~~   ** The getVariableValue function will return 0 for now to allow the plugin to finish, then EnergyPlus will abort
   ** Severe  ** Data Exchange API: Index error in getVariableValue; received handle: -1
   **   ~~~   ** The getVariableValue function will return 0 for now to allow the plugin to finish, then EnergyPlus will abort
   ** Severe  ** Data Exchange API: Index error in getVariableValue; received handle: -1
   **   ~~~   ** The getVariableValue function will return 0 for now to allow the plugin to finish, then EnergyPlus will abort
   ** Severe  ** Data Exchange API: Index error in getVariableValue; received handle: -1
   **   ~~~   ** The getVariableValue function will return 0 for now to allow the plugin to finish, then EnergyPlus will abort
   ** Severe  ** Data Exchange API: Index error in getVariableValue; received handle: -1
   **   ~~~   ** The getVariableValue function will return 0 for now to allow the plugin to finish, then EnergyPlus will abort
   ** Severe  ** Data Exchange API: Index error in getVariableValue; received handle: -1
   **   ~~~   ** The getVariableValue function will return 0 for now to allow the plugin to finish, then EnergyPlus will abort
   ** Severe  ** Data Exchange API: Index error in getVariableValue; received handle: -1
   **   ~~~   ** The getVariableValue function will return 0 for now to allow the plugin to finish, then EnergyPlus will abort
   ** Severe  ** Data Exchange API: Index error in getVariableValue; received handle: -1
   **   ~~~   ** The getVariableValue function will return 0 for now to allow the plugin to finish, then EnergyPlus will abort
   ** Severe  ** Data Exchange API: Index error in getVariableValue; received handle: -1
   **   ~~~   ** The getVariableValue function will return 0 for now to allow the plugin to finish, then EnergyPlus will abort
   ** Severe  ** Data Exchange API: Index error in getVariableValue; received handle: -1
   **   ~~~   ** The getVariableValue function will return 0 for now to allow the plugin to finish, then EnergyPlus will abort
   ** Severe  ** Data Exchange API: Index error in getVariableValue; received handle: -1
   **   ~~~   ** The getVariableValue function will return 0 for now to allow the plugin to finish, then EnergyPlus will abort
   ** Severe  ** Data Exchange API: Index error in getVariableValue; received handle: -1
   **   ~~~   ** The getVariableValue function will return 0 for now to allow the plugin to finish, then EnergyPlus will abort
   ** Severe  ** Data Exchange API: Index error in getVariableValue; received handle: -1
   **   ~~~   ** The getVariableValue function will return 0 for now to allow the plugin to finish, then EnergyPlus will abort
   ** Severe  ** Data Exchange API: Index error in getVariableValue; received handle: -1
   **   ~~~   ** The getVariableValue function will return 0 for now to allow the plugin to finish, then EnergyPlus will abort
   ** Severe  ** Data Exchange API: Index error in getVariableValue; received handle: -1
   **   ~~~   ** The getVariableValue function will return 0 for now to allow the plugin to finish, then EnergyPlus will abort
   ** Severe  ** Data Exchange API: Index error in getVariableValue; received handle: -1
   **   ~~~   ** The getVariableValue function will return 0 for now to allow the plugin to finish, then EnergyPlus will abort
   ** Severe  ** Data Exchange API: Index error in getVariableValue; received handle: -1
   **   ~~~   ** The getVariableValue function will return 0 for now to allow the plugin to finish, then EnergyPlus will abort
   ** Severe  ** Data Exchange API: Index error in getVariableValue; received handle: -1
   **   ~~~   ** The getVariableValue function will return 0 for now to allow the plugin to finish, then EnergyPlus will abort
   ** Severe  ** Data Exchange API: Index error in getVariableValue; received handle: -1
   **   ~~~   ** The getVariableValue function will return 0 for now to allow the plugin to finish, then EnergyPlus will abort
   ** Severe  ** Data Exchange API: Index error in getVariableValue; received handle: -1
   **   ~~~   ** The getVariableValue function will return 0 for now to allow the plugin to finish, then EnergyPlus will abort
   ** Severe  ** Data Exchange API: Index error in getVariableValue; received handle: -1
   **   ~~~   ** The getVariableValue function will return 0 for now to allow the plugin to finish, then EnergyPlus will abort
   ** Severe  ** Data Exchange API: Index error in getVariableValue; received handle: -1
   **   ~~~   ** The getVariableValue function will return 0 for now to allow the plugin to finish, then EnergyPlus will abort
   ** Severe  ** Data Exchange API: Index error in getVariableValue; received handle: -1
   **   ~~~   ** The getVariableValue function will return 0 for now to allow the plugin to finish, then EnergyPlus will abort
   ** Severe  ** Data Exchange API: Index error in getVariableValue; received handle: -1
   **   ~~~   ** The getVariableValue function will return 0 for now to allow the plugin to finish, then EnergyPlus will abort
   ** Severe  ** Data Exchange API: Index error in getVariableValue; received handle: -1
   **   ~~~   ** The getVariableValue function will return 0 for now to allow the plugin to finish, then EnergyPlus will abort
   ** Severe  ** Data Exchange API: Index error in getVariableValue; received handle: -1
   **   ~~~   ** The getVariableValue function will return 0 for now to allow the plugin to finish, then EnergyPlus will abort
   ** Severe  ** Data Exchange API: Index error in getVariableValue; received handle: -1
   **   ~~~   ** The getVariableValue function will return 0 for now to allow the plugin to finish, then EnergyPlus will abort
   ** Severe  ** Data Exchange API: Index error in getVariableValue; received handle: -1
   **   ~~~   ** The getVariableValue function will return 0 for now to allow the plugin to finish, then EnergyPlus will abort
   ** Severe  ** Data Exchange API: Index error in getVariableValue; received handle: -1
   **   ~~~   ** The getVariableValue function will return 0 for now to allow the plugin to finish, then EnergyPlus will abort
   ** Severe  ** Data Exchange API: Index error in getVariableValue; received handle: -1
   **   ~~~   ** The getVariableValue function will return 0 for now to allow the plugin to finish, then EnergyPlus will abort
   ** Severe  ** Data Exchange API: Index error in getVariableValue; received handle: -1
   **   ~~~   ** The getVariableValue function will return 0 for now to allow the plugin to finish, then EnergyPlus will abort
   ** Severe  ** Data Exchange API: Index error in getVariableValue; received handle: -1
   **   ~~~   ** The getVariableValue function will return 0 for now to allow the plugin to finish, then EnergyPlus will abort
   ** Severe  ** Data Exchange API: Index error in getVariableValue; received handle: -1
   **   ~~~   ** The getVariableValue function will return 0 for now to allow the plugin to finish, then EnergyPlus will abort
   ** Severe  ** Data Exchange API: Index error in getVariableValue; received handle: -1
   **   ~~~   ** The getVariableValue function will return 0 for now to allow the plugin to finish, then EnergyPlus will abort
   ** Severe  ** Data Exchange API: Index error in getVariableValue; received handle: -1
   **   ~~~   ** The getVariableValue function will return 0 for now to allow the plugin to finish, then EnergyPlus will abort
   ** Severe  ** Data Exchange API: Index error in getVariableValue; received handle: -1
   **   ~~~   ** The getVariableValue function will return 0 for now to allow the plugin to finish, then EnergyPlus will abort
   ** Severe  ** Data Exchange API: Index error in getVariableValue; received handle: -1
   **   ~~~   ** The getVariableValue function will return 0 for now to allow the plugin to finish, then EnergyPlus will abort
   ** Severe  ** Data Exchange API: Index error in getVariableValue; received handle: -1
   **   ~~~   ** The getVariableValue function will return 0 for now to allow the plugin to finish, then EnergyPlus will abort
   ** Severe  ** Data Exchange API: Index error in getVariableValue; received handle: -1
   **   ~~~   ** The getVariableValue function will return 0 for now to allow the plugin to finish, then EnergyPlus will abort
   ** Severe  ** Data Exchange API: Index error in getVariableValue; received handle: -1
   **   ~~~   ** The getVariableValue function will return 0 for now to allow the plugin to finish, then EnergyPlus will abort
   ** Severe  ** Data Exchange API: Index error in getVariableValue; received handle: -1
   **   ~~~   ** The getVariableValue function will return 0 for now to allow the plugin to finish, then EnergyPlus will abort
   ** Severe  ** Data Exchange API: Index error in getVariableValue; received handle: -1
   **   ~~~   ** The getVariableValue function will return 0 for now to allow the plugin to finish, then EnergyPlus will abort
   ** Severe  ** Data Exchange API: Index error in getVariableValue; received handle: -1
   **   ~~~   ** The getVariableValue function will return 0 for now to allow the plugin to finish, then EnergyPlus will abort
   ** Severe  ** Data Exchange API: Index error in getVariableValue; received handle: -1
   **   ~~~   ** The getVariableValue function will return 0 for now to allow the plugin to finish, then EnergyPlus will abort
   ** Severe  ** Data Exchange API: Index error in getVariableValue; received handle: -1
   **   ~~~   ** The getVariableValue function will return 0 for now to allow the plugin to finish, then EnergyPlus will abort
   ** Severe  ** Data Exchange API: Index error in getVariableValue; received handle: -1
   **   ~~~   ** The getVariableValue function will return 0 for now to allow the plugin to finish, then EnergyPlus will abort
   ** Severe  ** Data Exchange API: Index error in getVariableValue; received handle: -1
   **   ~~~   ** The getVariableValue function will return 0 for now to allow the plugin to finish, then EnergyPlus will abort
   ** Severe  ** Data Exchange API: Index error in getVariableValue; received handle: -1
   **   ~~~   ** The getVariableValue function will return 0 for now to allow the plugin to finish, then EnergyPlus will abort
   ** Severe  ** Data Exchange API: Index error in getVariableValue; received handle: -1
   **   ~~~   ** The getVariableValue function will return 0 for now to allow the plugin to finish, then EnergyPlus will abort
   ** Severe  ** Data Exchange API: Index error in getVariableValue; received handle: -1
   **   ~~~   ** The getVariableValue function will return 0 for now to allow the plugin to finish, then EnergyPlus will abort
   ** Severe  ** Data Exchange API: Index error in getVariableValue; received handle: -1
   **   ~~~   ** The getVariableValue function will return 0 for now to allow the plugin to finish, then EnergyPlus will abort
   ** Severe  ** Data Exchange API: Index error in getVariableValue; received handle: -1
   **   ~~~   ** The getVariableValue function will return 0 for now to allow the plugin to finish, then EnergyPlus will abort
   ** Severe  ** Data Exchange API: Index error in getVariableValue; received handle: -1
   **   ~~~   ** The getVariableValue function will return 0 for now to allow the plugin to finish, then EnergyPlus will abort
   ** Severe  ** Data Exchange API: Index error in getVariableValue; received handle: -1
   **   ~~~   ** The getVariableValue function will return 0 for now to allow the plugin to finish, then EnergyPlus will abort
   ** Severe  ** Data Exchange API: Index error in getVariableValue; received handle: -1
   **   ~~~   ** The getVariableValue function will return 0 for now to allow the plugin to finish, then EnergyPlus will abort
   ** Severe  ** Data Exchange API: Index error in getVariableValue; received handle: -1
   **   ~~~   ** The getVariableValue function will return 0 for now to allow the plugin to finish, then EnergyPlus will abort
   ** Severe  ** Data Exchange API: Index error in getVariableValue; received handle: -1
   **   ~~~   ** The getVariableValue function will return 0 for now to allow the plugin to finish, then EnergyPlus will abort
   ** Severe  ** Data Exchange API: Index error in getVariableValue; received handle: -1
   **   ~~~   ** The getVariableValue function will return 0 for now to allow the plugin to finish, then EnergyPlus will abort
   ** Severe  ** Data Exchange API: Index error in getVariableValue; received handle: -1
   **   ~~~   ** The getVariableValue function will return 0 for now to allow the plugin to finish, then EnergyPlus will abort
   ** Severe  ** Data Exchange API: Index error in getVariableValue; received handle: -1
   **   ~~~   ** The getVariableValue function will return 0 for now to allow the plugin to finish, then EnergyPlus will abort
   ** Severe  ** Data Exchange API: Index error in getVariableValue; received handle: -1
   **   ~~~   ** The getVariableValue function will return 0 for now to allow the plugin to finish, then EnergyPlus will abort
   ** Severe  ** Data Exchange API: Index error in getVariableValue; received handle: -1
   **   ~~~   ** The getVariableValue function will return 0 for now to allow the plugin to finish, then EnergyPlus will abort
   ** Severe  ** Data Exchange API: Index error in getVariableValue; received handle: -1
   **   ~~~   ** The getVariableValue function will return 0 for now to allow the plugin to finish, then EnergyPlus will abort
   ** Severe  ** Data Exchange API: Index error in getVariableValue; received handle: -1
   **   ~~~   ** The getVariableValue function will return 0 for now to allow the plugin to finish, then EnergyPlus will abort
   ** Severe  ** Data Exchange API: Index error in getVariableValue; received handle: -1
   **   ~~~   ** The getVariableValue function will return 0 for now to allow the plugin to finish, then EnergyPlus will abort
   ** Severe  ** Data Exchange API: Index error in getVariableValue; received handle: -1
   **   ~~~   ** The getVariableValue function will return 0 for now to allow the plugin to finish, then EnergyPlus will abort
   ** Severe  ** Data Exchange API: Index error in getVariableValue; received handle: -1
   **   ~~~   ** The getVariableValue function will return 0 for now to allow the plugin to finish, then EnergyPlus will abort
   ** Severe  ** Data Exchange API: Index error in getVariableValue; received handle: -1
   **   ~~~   ** The getVariableValue function will return 0 for now to allow the plugin to finish, then EnergyPlus will abort
   ** Severe  ** Data Exchange API: Index error in getVariableValue; received handle: -1
   **   ~~~   ** The getVariableValue function will return 0 for now to allow the plugin to finish, then EnergyPlus will abort
   ** Severe  ** Data Exchange API: Index error in getVariableValue; received handle: -1
   **   ~~~   ** The getVariableValue function will return 0 for now to allow the plugin to finish, then EnergyPlus will abort
   ** Severe  ** Data Exchange API: Index error in getVariableValue; received handle: -1
   **   ~~~   ** The getVariableValue function will return 0 for now to allow the plugin to finish, then EnergyPlus will abort
   ** Severe  ** Data Exchange API: Index error in getVariableValue; received handle: -1
   **   ~~~   ** The getVariableValue function will return 0 for now to allow the plugin to finish, then EnergyPlus will abort
   ** Severe  ** Data Exchange API: Index error in getVariableValue; received handle: -1
   **   ~~~   ** The getVariableValue function will return 0 for now to allow the plugin to finish, then EnergyPlus will abort
   ** Severe  ** Data Exchange API: Index error in getVariableValue; received handle: -1
   **   ~~~   ** The getVariableValue function will return 0 for now to allow the plugin to finish, then EnergyPlus will abort
   ** Severe  ** Data Exchange API: Index error in getVariableValue; received handle: -1
   **   ~~~   ** The getVariableValue function will return 0 for now to allow the plugin to finish, then EnergyPlus will abort
   ** Severe  ** Data Exchange API: Index error in getVariableValue; received handle: -1
   **   ~~~   ** The getVariableValue function will return 0 for now to allow the plugin to finish, then EnergyPlus will abort
   ** Severe  ** Data Exchange API: Index error in getVariableValue; received handle: -1
   **   ~~~   ** The getVariableValue function will return 0 for now to allow the plugin to finish, then EnergyPlus will abort
   ** Severe  ** Data Exchange API: Index error in getVariableValue; received handle: -1
   **   ~~~   ** The getVariableValue function will return 0 for now to allow the plugin to finish, then EnergyPlus will abort
   ** Severe  ** Data Exchange API: Index error in getVariableValue; received handle: -1
   **   ~~~   ** The getVariableValue function will return 0 for now to allow the plugin to finish, then EnergyPlus will abort
   ** Severe  ** Data Exchange API: Index error in getVariableValue; received handle: -1
   **   ~~~   ** The getVariableValue function will return 0 for now to allow the plugin to finish, then EnergyPlus will abort
   ** Severe  ** Data Exchange API: Index error in getVariableValue; received handle: -1
   **   ~~~   ** The getVariableValue function will return 0 for now to allow the plugin to finish, then EnergyPlus will abort
   ** Severe  ** Data Exchange API: Index error in getVariableValue; received handle: -1
   **   ~~~   ** The getVariableValue function will return 0 for now to allow the plugin to finish, then EnergyPlus will abort
   ** Severe  ** Data Exchange API: Index error in getVariableValue; received handle: -1
   **   ~~~   ** The getVariableValue function will return 0 for now to allow the plugin to finish, then EnergyPlus will abort
   ** Severe  ** Data Exchange API: Index error in getVariableValue; received handle: -1
   **   ~~~   ** The getVariableValue function will return 0 for now to allow the plugin to finish, then EnergyPlus will abort
   ** Severe  ** Data Exchange API: Index error in getVariableValue; received handle: -1
   **   ~~~   ** The getVariableValue function will return 0 for now to allow the plugin to finish, then EnergyPlus will abort
   ** Severe  ** Data Exchange API: Index error in getVariableValue; received handle: -1
   **   ~~~   ** The getVariableValue function will return 0 for now to allow the plugin to finish, then EnergyPlus will abort
   ** Severe  ** Data Exchange API: Index error in getVariableValue; received handle: -1
   **   ~~~   ** The getVariableValue function will return 0 for now to allow the plugin to finish, then EnergyPlus will abort
   ** Severe  ** Data Exchange API: Index error in getVariableValue; received handle: -1
   **   ~~~   ** The getVariableValue function will return 0 for now to allow the plugin to finish, then EnergyPlus will abort
   ** Severe  ** Data Exchange API: Index error in getVariableValue; received handle: -1
   **   ~~~   ** The getVariableValue function will return 0 for now to allow the plugin to finish, then EnergyPlus will abort
   ** Severe  ** Data Exchange API: Index error in getVariableValue; received handle: -1
   **   ~~~   ** The getVariableValue function will return 0 for now to allow the plugin to finish, then EnergyPlus will abort
   ** Severe  ** Data Exchange API: Index error in getVariableValue; received handle: -1
   **   ~~~   ** The getVariableValue function will return 0 for now to allow the plugin to finish, then EnergyPlus will abort
   ** Severe  ** Data Exchange API: Index error in getVariableValue; received handle: -1
   **   ~~~   ** The getVariableValue function will return 0 for now to allow the plugin to finish, then EnergyPlus will abort
   ** Severe  ** Data Exchange API: Index error in getVariableValue; received handle: -1
   **   ~~~   ** The getVariableValue function will return 0 for now to allow the plugin to finish, then EnergyPlus will abort
   ** Severe  ** Data Exchange API: Index error in getVariableValue; received handle: -1
   **   ~~~   ** The getVariableValue function will return 0 for now to allow the plugin to finish, then EnergyPlus will abort
   ** Severe  ** Data Exchange API: Index error in getVariableValue; received handle: -1
   **   ~~~   ** The getVariableValue function will return 0 for now to allow the plugin to finish, then EnergyPlus will abort
   ** Severe  ** Data Exchange API: Index error in getVariableValue; received handle: -1
   **   ~~~   ** The getVariableValue function will return 0 for now to allow the plugin to finish, then EnergyPlus will abort
   ** Severe  ** Data Exchange API: Index error in getVariableValue; received handle: -1
   **   ~~~   ** The getVariableValue function will return 0 for now to allow the plugin to finish, then EnergyPlus will abort
   ** Severe  ** Data Exchange API: Index error in getVariableValue; received handle: -1
   **   ~~~   ** The getVariableValue function will return 0 for now to allow the plugin to finish, then EnergyPlus will abort
   ** Severe  ** Data Exchange API: Index error in getVariableValue; received handle: -1
   **   ~~~   ** The getVariableValue function will return 0 for now to allow the plugin to finish, then EnergyPlus will abort
   ** Severe  ** Data Exchange API: Index error in getVariableValue; received handle: -1
   **   ~~~   ** The getVariableValue function will return 0 for now to allow the plugin to finish, then EnergyPlus will abort
   ** Severe  ** Data Exchange API: Index error in getVariableValue; received handle: -1
   **   ~~~   ** The getVariableValue function will return 0 for now to allow the plugin to finish, then EnergyPlus will abort
   ** Severe  ** Data Exchange API: Index error in getVariableValue; received handle: -1
   **   ~~~   ** The getVariableValue function will return 0 for now to allow the plugin to finish, then EnergyPlus will abort
   ** Severe  ** Data Exchange API: Index error in getVariableValue; received handle: -1
   **   ~~~   ** The getVariableValue function will return 0 for now to allow the plugin to finish, then EnergyPlus will abort
   ** Severe  ** Data Exchange API: Index error in getVariableValue; received handle: -1
   **   ~~~   ** The getVariableValue function will return 0 for now to allow the plugin to finish, then EnergyPlus will abort
   ** Severe  ** Data Exchange API: Index error in getVariableValue; received handle: -1
   **   ~~~   ** The getVariableValue function will return 0 for now to allow the plugin to finish, then EnergyPlus will abort
   ** Severe  ** Data Exchange API: Index error in getVariableValue; received handle: -1
   **   ~~~   ** The getVariableValue function will return 0 for now to allow the plugin to finish, then EnergyPlus will abort
   ** Severe  ** Data Exchange API: Index error in getVariableValue; received handle: -1
   **   ~~~   ** The getVariableValue function will return 0 for now to allow the plugin to finish, then EnergyPlus will abort
   ** Severe  ** Data Exchange API: Index error in getVariableValue; received handle: -1
   **   ~~~   ** The getVariableValue function will return 0 for now to allow the plugin to finish, then EnergyPlus will abort
   ** Severe  ** Data Exchange API: Index error in getVariableValue; received handle: -1
   **   ~~~   ** The getVariableValue function will return 0 for now to allow the plugin to finish, then EnergyPlus will abort
   ** Severe  ** Data Exchange API: Index error in getVariableValue; received handle: -1
   **   ~~~   ** The getVariableValue function will return 0 for now to allow the plugin to finish, then EnergyPlus will abort
   ** Severe  ** Data Exchange API: Index error in getVariableValue; received handle: -1
   **   ~~~   ** The getVariableValue function will return 0 for now to allow the plugin to finish, then EnergyPlus will abort
   ** Severe  ** Data Exchange API: Index error in getVariableValue; received handle: -1
   **   ~~~   ** The getVariableValue function will return 0 for now to allow the plugin to finish, then EnergyPlus will abort
   ** Severe  ** Data Exchange API: Index error in getVariableValue; received handle: -1
   **   ~~~   ** The getVariableValue function will return 0 for now to allow the plugin to finish, then EnergyPlus will abort
   ** Severe  ** Data Exchange API: Index error in getVariableValue; received handle: -1
   **   ~~~   ** The getVariableValue function will return 0 for now to allow the plugin to finish, then EnergyPlus will abort
   ** Severe  ** Data Exchange API: Index error in getVariableValue; received handle: -1
   **   ~~~   ** The getVariableValue function will return 0 for now to allow the plugin to finish, then EnergyPlus will abort
   ** Severe  ** Data Exchange API: Index error in getVariableValue; received handle: -1
   **   ~~~   ** The getVariableValue function will return 0 for now to allow the plugin to finish, then EnergyPlus will abort
   ** Severe  ** Data Exchange API: Index error in getVariableValue; received handle: -1
   **   ~~~   ** The getVariableValue function will return 0 for now to allow the plugin to finish, then EnergyPlus will abort
   ** Severe  ** Data Exchange API: Index error in getVariableValue; received handle: -1
   **   ~~~   ** The getVariableValue function will return 0 for now to allow the plugin to finish, then EnergyPlus will abort
   ** Severe  ** Data Exchange API: Index error in getVariableValue; received handle: -1
   **   ~~~   ** The getVariableValue function will return 0 for now to allow the plugin to finish, then EnergyPlus will abort
   ** Severe  ** Data Exchange API: Index error in getVariableValue; received handle: -1
   **   ~~~   ** The getVariableValue function will return 0 for now to allow the plugin to finish, then EnergyPlus will abort
   ** Severe  ** Data Exchange API: Index error in getVariableValue; received handle: -1
   **   ~~~   ** The getVariableValue function will return 0 for now to allow the plugin to finish, then EnergyPlus will abort
   ** Severe  ** Data Exchange API: Index error in getVariableValue; received handle: -1
   **   ~~~   ** The getVariableValue function will return 0 for now to allow the plugin to finish, then EnergyPlus will abort
   ** Severe  ** Data Exchange API: Index error in getVariableValue; received handle: -1
   **   ~~~   ** The getVariableValue function will return 0 for now to allow the plugin to finish, then EnergyPlus will abort
   ** Severe  ** Data Exchange API: Index error in getVariableValue; received handle: -1
   **   ~~~   ** The getVariableValue function will return 0 for now to allow the plugin to finish, then EnergyPlus will abort
   ** Severe  ** Data Exchange API: Index error in getVariableValue; received handle: -1
   **   ~~~   ** The getVariableValue function will return 0 for now to allow the plugin to finish, then EnergyPlus will abort
   ** Severe  ** Data Exchange API: Index error in getVariableValue; received handle: -1
   **   ~~~   ** The getVariableValue function will return 0 for now to allow the plugin to finish, then EnergyPlus will abort
   ** Severe  ** Data Exchange API: Index error in getVariableValue; received handle: -1
   **   ~~~   ** The getVariableValue function will return 0 for now to allow the plugin to finish, then EnergyPlus will abort
   ** Severe  ** Data Exchange API: Index error in getVariableValue; received handle: -1
   **   ~~~   ** The getVariableValue function will return 0 for now to allow the plugin to finish, then EnergyPlus will abort
   ** Severe  ** Data Exchange API: Index error in getVariableValue; received handle: -1
   **   ~~~   ** The getVariableValue function will return 0 for now to allow the plugin to finish, then EnergyPlus will abort
   ** Severe  ** Data Exchange API: Index error in getVariableValue; received handle: -1
   **   ~~~   ** The getVariableValue function will return 0 for now to allow the plugin to finish, then EnergyPlus will abort
   ** Severe  ** Data Exchange API: Index error in getVariableValue; received handle: -1
   **   ~~~   ** The getVariableValue function will return 0 for now to allow the plugin to finish, then EnergyPlus will abort
   ** Severe  ** Data Exchange API: Index error in getVariableValue; received handle: -1
   **   ~~~   ** The getVariableValue function will return 0 for now to allow the plugin to finish, then EnergyPlus will abort
   ** Severe  ** Data Exchange API: Index error in getVariableValue; received handle: -1
   **   ~~~   ** The getVariableValue function will return 0 for now to allow the plugin to finish, then EnergyPlus will abort
   ** Severe  ** Data Exchange API: Index error in getVariableValue; received handle: -1
   **   ~~~   ** The getVariableValue function will return 0 for now to allow the plugin to finish, then EnergyPlus will abort
   ** Severe  ** Data Exchange API: Index error in getVariableValue; received handle: -1
   **   ~~~   ** The getVariableValue function will return 0 for now to allow the plugin to finish, then EnergyPlus will abort
   ** Severe  ** Data Exchange API: Index error in getVariableValue; received handle: -1
   **   ~~~   ** The getVariableValue function will return 0 for now to allow the plugin to finish, then EnergyPlus will abort
   ** Severe  ** Data Exchange API: Index error in getVariableValue; received handle: -1
   **   ~~~   ** The getVariableValue function will return 0 for now to allow the plugin to finish, then EnergyPlus will abort
   ** Severe  ** Data Exchange API: Index error in getVariableValue; received handle: -1
   **   ~~~   ** The getVariableValue function will return 0 for now to allow the plugin to finish, then EnergyPlus will abort
   ** Severe  ** Data Exchange API: Index error in getVariableValue; received handle: -1
   **   ~~~   ** The getVariableValue function will return 0 for now to allow the plugin to finish, then EnergyPlus will abort
   ** Severe  ** Data Exchange API: Index error in getVariableValue; received handle: -1
   **   ~~~   ** The getVariableValue function will return 0 for now to allow the plugin to finish, then EnergyPlus will abort
   ** Severe  ** Data Exchange API: Index error in getVariableValue; received handle: -1
   **   ~~~   ** The getVariableValue function will return 0 for now to allow the plugin to finish, then EnergyPlus will abort
   ** Severe  ** Data Exchange API: Index error in getVariableValue; received handle: -1
   **   ~~~   ** The getVariableValue function will return 0 for now to allow the plugin to finish, then EnergyPlus will abort
   ** Severe  ** Data Exchange API: Index error in getVariableValue; received handle: -1
   **   ~~~   ** The getVariableValue function will return 0 for now to allow the plugin to finish, then EnergyPlus will abort
   ** Severe  ** Data Exchange API: Index error in getVariableValue; received handle: -1
   **   ~~~   ** The getVariableValue function will return 0 for now to allow the plugin to finish, then EnergyPlus will abort
   ** Severe  ** Data Exchange API: Index error in getVariableValue; received handle: -1
   **   ~~~   ** The getVariableValue function will return 0 for now to allow the plugin to finish, then EnergyPlus will abort
   ** Severe  ** Data Exchange API: Index error in getVariableValue; received handle: -1
   **   ~~~   ** The getVariableValue function will return 0 for now to allow the plugin to finish, then EnergyPlus will abort
   ** Severe  ** Data Exchange API: Index error in getVariableValue; received handle: -1
   **   ~~~   ** The getVariableValue function will return 0 for now to allow the plugin to finish, then EnergyPlus will abort
   ** Severe  ** Data Exchange API: Index error in getVariableValue; received handle: -1
   **   ~~~   ** The getVariableValue function will return 0 for now to allow the plugin to finish, then EnergyPlus will abort
   ** Severe  ** Data Exchange API: Index error in getVariableValue; received handle: -1
   **   ~~~   ** The getVariableValue function will return 0 for now to allow the plugin to finish, then EnergyPlus will abort
   ** Severe  ** Data Exchange API: Index error in getVariableValue; received handle: -1
   **   ~~~   ** The getVariableValue function will return 0 for now to allow the plugin to finish, then EnergyPlus will abort
   ** Severe  ** Data Exchange API: Index error in getVariableValue; received handle: -1
   **   ~~~   ** The getVariableValue function will return 0 for now to allow the plugin to finish, then EnergyPlus will abort
   ** Severe  ** Data Exchange API: Index error in getVariableValue; received handle: -1
   **   ~~~   ** The getVariableValue function will return 0 for now to allow the plugin to finish, then EnergyPlus will abort
   ** Severe  ** Data Exchange API: Index error in getVariableValue; received handle: -1
   **   ~~~   ** The getVariableValue function will return 0 for now to allow the plugin to finish, then EnergyPlus will abort
   ** Severe  ** Data Exchange API: Index error in getVariableValue; received handle: -1
   **   ~~~   ** The getVariableValue function will return 0 for now to allow the plugin to finish, then EnergyPlus will abort
   ** Severe  ** Data Exchange API: Index error in getVariableValue; received handle: -1
   **   ~~~   ** The getVariableValue function will return 0 for now to allow the plugin to finish, then EnergyPlus will abort
   ** Severe  ** Data Exchange API: Index error in getVariableValue; received handle: -1
   **   ~~~   ** The getVariableValue function will return 0 for now to allow the plugin to finish, then EnergyPlus will abort
   ** Severe  ** Data Exchange API: Index error in getVariableValue; received handle: -1
   **   ~~~   ** The getVariableValue function will return 0 for now to allow the plugin to finish, then EnergyPlus will abort
   ** Severe  ** Data Exchange API: Index error in getVariableValue; received handle: -1
   **   ~~~   ** The getVariableValue function will return 0 for now to allow the plugin to finish, then EnergyPlus will abort
   ** Severe  ** Data Exchange API: Index error in getVariableValue; received handle: -1
   **   ~~~   ** The getVariableValue function will return 0 for now to allow the plugin to finish, then EnergyPlus will abort
   ** Severe  ** Data Exchange API: Index error in getVariableValue; received handle: -1
   **   ~~~   ** The getVariableValue function will return 0 for now to allow the plugin to finish, then EnergyPlus will abort
   ** Severe  ** Data Exchange API: Index error in getVariableValue; received handle: -1
   **   ~~~   ** The getVariableValue function will return 0 for now to allow the plugin to finish, then EnergyPlus will abort
   ** Severe  ** Data Exchange API: Index error in getVariableValue; received handle: -1
   **   ~~~   ** The getVariableValue function will return 0 for now to allow the plugin to finish, then EnergyPlus will abort
   ** Severe  ** Data Exchange API: Index error in getVariableValue; received handle: -1
   **   ~~~   ** The getVariableValue function will return 0 for now to allow the plugin to finish, then EnergyPlus will abort
   ** Severe  ** Data Exchange API: Index error in getVariableValue; received handle: -1
   **   ~~~   ** The getVariableValue function will return 0 for now to allow the plugin to finish, then EnergyPlus will abort
   ** Severe  ** Data Exchange API: Index error in getVariableValue; received handle: -1
   **   ~~~   ** The getVariableValue function will return 0 for now to allow the plugin to finish, then EnergyPlus will abort
   ** Severe  ** Data Exchange API: Index error in getVariableValue; received handle: -1
   **   ~~~   ** The getVariableValue function will return 0 for now to allow the plugin to finish, then EnergyPlus will abort
   ** Severe  ** Data Exchange API: Index error in getVariableValue; received handle: -1
   **   ~~~   ** The getVariableValue function will return 0 for now to allow the plugin to finish, then EnergyPlus will abort
   ** Severe  ** Data Exchange API: Index error in getVariableValue; received handle: -1
   **   ~~~   ** The getVariableValue function will return 0 for now to allow the plugin to finish, then EnergyPlus will abort
   ** Severe  ** Data Exchange API: Index error in getVariableValue; received handle: -1
   **   ~~~   ** The getVariableValue function will return 0 for now to allow the plugin to finish, then EnergyPlus will abort
   ** Severe  ** Data Exchange API: Index error in getVariableValue; received handle: -1
   **   ~~~   ** The getVariableValue function will return 0 for now to allow the plugin to finish, then EnergyPlus will abort
   ** Severe  ** Data Exchange API: Index error in getVariableValue; received handle: -1
   **   ~~~   ** The getVariableValue function will return 0 for now to allow the plugin to finish, then EnergyPlus will abort
   ** Severe  ** Data Exchange API: Index error in getVariableValue; received handle: -1
   **   ~~~   ** The getVariableValue function will return 0 for now to allow the plugin to finish, then EnergyPlus will abort
   ** Severe  ** Data Exchange API: Index error in getVariableValue; received handle: -1
   **   ~~~   ** The getVariableValue function will return 0 for now to allow the plugin to finish, then EnergyPlus will abort
   ** Severe  ** Data Exchange API: Index error in getVariableValue; received handle: -1
   **   ~~~   ** The getVariableValue function will return 0 for now to allow the plugin to finish, then EnergyPlus will abort
   ** Severe  ** Data Exchange API: Index error in getVariableValue; received handle: -1
   **   ~~~   ** The getVariableValue function will return 0 for now to allow the plugin to finish, then EnergyPlus will abort
   ** Severe  ** Data Exchange API: Index error in getVariableValue; received handle: -1
   **   ~~~   ** The getVariableValue function will return 0 for now to allow the plugin to finish, then EnergyPlus will abort
   ** Severe  ** Data Exchange API: Index error in getVariableValue; received handle: -1
   **   ~~~   ** The getVariableValue function will return 0 for now to allow the plugin to finish, then EnergyPlus will abort
   ** Severe  ** Data Exchange API: Index error in getVariableValue; received handle: -1
   **   ~~~   ** The getVariableValue function will return 0 for now to allow the plugin to finish, then EnergyPlus will abort
   ** Severe  ** Data Exchange API: Index error in getVariableValue; received handle: -1
   **   ~~~   ** The getVariableValue function will return 0 for now to allow the plugin to finish, then EnergyPlus will abort
   ** Severe  ** Data Exchange API: Index error in getVariableValue; received handle: -1
   **   ~~~   ** The getVariableValue function will return 0 for now to allow the plugin to finish, then EnergyPlus will abort
   ** Severe  ** Data Exchange API: Index error in getVariableValue; received handle: -1
   **   ~~~   ** The getVariableValue function will return 0 for now to allow the plugin to finish, then EnergyPlus will abort
   ** Severe  ** Data Exchange API: Index error in getVariableValue; received handle: -1
   **   ~~~   ** The getVariableValue function will return 0 for now to allow the plugin to finish, then EnergyPlus will abort
   ** Severe  ** Data Exchange API: Index error in getVariableValue; received handle: -1
   **   ~~~   ** The getVariableValue function will return 0 for now to allow the plugin to finish, then EnergyPlus will abort
   ** Severe  ** Data Exchange API: Index error in getVariableValue; received handle: -1
   **   ~~~   ** The getVariableValue function will return 0 for now to allow the plugin to finish, then EnergyPlus will abort
   ** Severe  ** Data Exchange API: Index error in getVariableValue; received handle: -1
   **   ~~~   ** The getVariableValue function will return 0 for now to allow the plugin to finish, then EnergyPlus will abort
   ** Severe  ** Data Exchange API: Index error in getVariableValue; received handle: -1
   **   ~~~   ** The getVariableValue function will return 0 for now to allow the plugin to finish, then EnergyPlus will abort
   ** Severe  ** Data Exchange API: Index error in getVariableValue; received handle: -1
   **   ~~~   ** The getVariableValue function will return 0 for now to allow the plugin to finish, then EnergyPlus will abort
   ** Severe  ** Data Exchange API: Index error in getVariableValue; received handle: -1
   **   ~~~   ** The getVariableValue function will return 0 for now to allow the plugin to finish, then EnergyPlus will abort
   ** Severe  ** Data Exchange API: Index error in getVariableValue; received handle: -1
   **   ~~~   ** The getVariableValue function will return 0 for now to allow the plugin to finish, then EnergyPlus will abort
   ** Severe  ** Data Exchange API: Index error in getVariableValue; received handle: -1
   **   ~~~   ** The getVariableValue function will return 0 for now to allow the plugin to finish, then EnergyPlus will abort
   ** Severe  ** Data Exchange API: Index error in getVariableValue; received handle: -1
   **   ~~~   ** The getVariableValue function will return 0 for now to allow the plugin to finish, then EnergyPlus will abort
   ** Severe  ** Data Exchange API: Index error in getVariableValue; received handle: -1
   **   ~~~   ** The getVariableValue function will return 0 for now to allow the plugin to finish, then EnergyPlus will abort
   ** Severe  ** Data Exchange API: Index error in getVariableValue; received handle: -1
   **   ~~~   ** The getVariableValue function will return 0 for now to allow the plugin to finish, then EnergyPlus will abort
   ** Severe  ** Data Exchange API: Index error in getVariableValue; received handle: -1
   **   ~~~   ** The getVariableValue function will return 0 for now to allow the plugin to finish, then EnergyPlus will abort
   ** Severe  ** Data Exchange API: Index error in getVariableValue; received handle: -1
   **   ~~~   ** The getVariableValue function will return 0 for now to allow the plugin to finish, then EnergyPlus will abort
   ** Severe  ** Data Exchange API: Index error in getVariableValue; received handle: -1
   **   ~~~   ** The getVariableValue function will return 0 for now to allow the plugin to finish, then EnergyPlus will abort
   ** Severe  ** Data Exchange API: Index error in getVariableValue; received handle: -1
   **   ~~~   ** The getVariableValue function will return 0 for now to allow the plugin to finish, then EnergyPlus will abort
   ** Severe  ** Data Exchange API: Index error in getVariableValue; received handle: -1
   **   ~~~   ** The getVariableValue function will return 0 for now to allow the plugin to finish, then EnergyPlus will abort
   ** Severe  ** Data Exchange API: Index error in getVariableValue; received handle: -1
   **   ~~~   ** The getVariableValue function will return 0 for now to allow the plugin to finish, then EnergyPlus will abort
   ** Severe  ** Data Exchange API: Index error in getVariableValue; received handle: -1
   **   ~~~   ** The getVariableValue function will return 0 for now to allow the plugin to finish, then EnergyPlus will abort
   ** Severe  ** Data Exchange API: Index error in getVariableValue; received handle: -1
   **   ~~~   ** The getVariableValue function will return 0 for now to allow the plugin to finish, then EnergyPlus will abort
   ** Severe  ** Data Exchange API: Index error in getVariableValue; received handle: -1
   **   ~~~   ** The getVariableValue function will return 0 for now to allow the plugin to finish, then EnergyPlus will abort
   ** Severe  ** Data Exchange API: Index error in getVariableValue; received handle: -1
   **   ~~~   ** The getVariableValue function will return 0 for now to allow the plugin to finish, then EnergyPlus will abort
   ** Severe  ** Data Exchange API: Index error in getVariableValue; received handle: -1
   **   ~~~   ** The getVariableValue function will return 0 for now to allow the plugin to finish, then EnergyPlus will abort
   ** Severe  ** Data Exchange API: Index error in getVariableValue; received handle: -1
   **   ~~~   ** The getVariableValue function will return 0 for now to allow the plugin to finish, then EnergyPlus will abort
   ** Severe  ** Data Exchange API: Index error in getVariableValue; received handle: -1
   **   ~~~   ** The getVariableValue function will return 0 for now to allow the plugin to finish, then EnergyPlus will abort
   ** Severe  ** Data Exchange API: Index error in getVariableValue; received handle: -1
   **   ~~~   ** The getVariableValue function will return 0 for now to allow the plugin to finish, then EnergyPlus will abort
   ** Severe  ** Data Exchange API: Index error in getVariableValue; received handle: -1
   **   ~~~   ** The getVariableValue function will return 0 for now to allow the plugin to finish, then EnergyPlus will abort
   ** Severe  ** Data Exchange API: Index error in getVariableValue; received handle: -1
   **   ~~~   ** The getVariableValue function will return 0 for now to allow the plugin to finish, then EnergyPlus will abort
   ** Severe  ** Data Exchange API: Index error in getVariableValue; received handle: -1
   **   ~~~   ** The getVariableValue function will return 0 for now to allow the plugin to finish, then EnergyPlus will abort
   ** Severe  ** Data Exchange API: Index error in getVariableValue; received handle: -1
   **   ~~~   ** The getVariableValue function will return 0 for now to allow the plugin to finish, then EnergyPlus will abort
   ** Severe  ** Data Exchange API: Index error in getVariableValue; received handle: -1
   **   ~~~   ** The getVariableValue function will return 0 for now to allow the plugin to finish, then EnergyPlus will abort
   ** Severe  ** Data Exchange API: Index error in getVariableValue; received handle: -1
   **   ~~~   ** The getVariableValue function will return 0 for now to allow the plugin to finish, then EnergyPlus will abort
   ** Severe  ** Data Exchange API: Index error in getVariableValue; received handle: -1
   **   ~~~   ** The getVariableValue function will return 0 for now to allow the plugin to finish, then EnergyPlus will abort
   ** Severe  ** Data Exchange API: Index error in getVariableValue; received handle: -1
   **   ~~~   ** The getVariableValue function will return 0 for now to allow the plugin to finish, then EnergyPlus will abort
   ** Severe  ** Data Exchange API: Index error in getVariableValue; received handle: -1
   **   ~~~   ** The getVariableValue function will return 0 for now to allow the plugin to finish, then EnergyPlus will abort
   ** Severe  ** Data Exchange API: Index error in getVariableValue; received handle: -1
   **   ~~~   ** The getVariableValue function will return 0 for now to allow the plugin to finish, then EnergyPlus will abort
   ** Severe  ** Data Exchange API: Index error in getVariableValue; received handle: -1
   **   ~~~   ** The getVariableValue function will return 0 for now to allow the plugin to finish, then EnergyPlus will abort
   ** Severe  ** Data Exchange API: Index error in getVariableValue; received handle: -1
   **   ~~~   ** The getVariableValue function will return 0 for now to allow the plugin to finish, then EnergyPlus will abort
   ** Severe  ** Data Exchange API: Index error in getVariableValue; received handle: -1
   **   ~~~   ** The getVariableValue function will return 0 for now to allow the plugin to finish, then EnergyPlus will abort
   ** Severe  ** Data Exchange API: Index error in getVariableValue; received handle: -1
   **   ~~~   ** The getVariableValue function will return 0 for now to allow the plugin to finish, then EnergyPlus will abort
   ** Severe  ** Data Exchange API: Index error in getVariableValue; received handle: -1
   **   ~~~   ** The getVariableValue function will return 0 for now to allow the plugin to finish, then EnergyPlus will abort
   ** Severe  ** Data Exchange API: Index error in getVariableValue; received handle: -1
   **   ~~~   ** The getVariableValue function will return 0 for now to allow the plugin to finish, then EnergyPlus will abort
   ** Severe  ** Data Exchange API: Index error in getVariableValue; received handle: -1
   **   ~~~   ** The getVariableValue function will return 0 for now to allow the plugin to finish, then EnergyPlus will abort
   ** Severe  ** Data Exchange API: Index error in getVariableValue; received handle: -1
   **   ~~~   ** The getVariableValue function will return 0 for now to allow the plugin to finish, then EnergyPlus will abort
   ** Severe  ** Data Exchange API: Index error in getVariableValue; received handle: -1
   **   ~~~   ** The getVariableValue function will return 0 for now to allow the plugin to finish, then EnergyPlus will abort
   ** Severe  ** Data Exchange API: Index error in getVariableValue; received handle: -1
   **   ~~~   ** The getVariableValue function will return 0 for now to allow the plugin to finish, then EnergyPlus will abort
   ** Severe  ** Data Exchange API: Index error in getVariableValue; received handle: -1
   **   ~~~   ** The getVariableValue function will return 0 for now to allow the plugin to finish, then EnergyPlus will abort
   ** Severe  ** Data Exchange API: Index error in getVariableValue; received handle: -1
   **   ~~~   ** The getVariableValue function will return 0 for now to allow the plugin to finish, then EnergyPlus will abort
   ** Severe  ** Data Exchange API: Index error in getVariableValue; received handle: -1
   **   ~~~   ** The getVariableValue function will return 0 for now to allow the plugin to finish, then EnergyPlus will abort
   ** Severe  ** Data Exchange API: Index error in getVariableValue; received handle: -1
   **   ~~~   ** The getVariableValue function will return 0 for now to allow the plugin to finish, then EnergyPlus will abort
   ** Severe  ** Data Exchange API: Index error in getVariableValue; received handle: -1
   **   ~~~   ** The getVariableValue function will return 0 for now to allow the plugin to finish, then EnergyPlus will abort
   ** Severe  ** Data Exchange API: Index error in getVariableValue; received handle: -1
   **   ~~~   ** The getVariableValue function will return 0 for now to allow the plugin to finish, then EnergyPlus will abort
   ** Severe  ** Data Exchange API: Index error in getVariableValue; received handle: -1
   **   ~~~   ** The getVariableValue function will return 0 for now to allow the plugin to finish, then EnergyPlus will abort
   ** Severe  ** Data Exchange API: Index error in getVariableValue; received handle: -1
   **   ~~~   ** The getVariableValue function will return 0 for now to allow the plugin to finish, then EnergyPlus will abort
   ** Severe  ** Data Exchange API: Index error in getVariableValue; received handle: -1
   **   ~~~   ** The getVariableValue function will return 0 for now to allow the plugin to finish, then EnergyPlus will abort
   ** Severe  ** Data Exchange API: Index error in getVariableValue; received handle: -1
   **   ~~~   ** The getVariableValue function will return 0 for now to allow the plugin to finish, then EnergyPlus will abort
   ** Severe  ** Data Exchange API: Index error in getVariableValue; received handle: -1
   **   ~~~   ** The getVariableValue function will return 0 for now to allow the plugin to finish, then EnergyPlus will abort
   ** Severe  ** Data Exchange API: Index error in getVariableValue; received handle: -1
   **   ~~~   ** The getVariableValue function will return 0 for now to allow the plugin to finish, then EnergyPlus will abort
   ** Severe  ** Data Exchange API: Index error in getVariableValue; received handle: -1
   **   ~~~   ** The getVariableValue function will return 0 for now to allow the plugin to finish, then EnergyPlus will abort
   ** Severe  ** Data Exchange API: Index error in getVariableValue; received handle: -1
   **   ~~~   ** The getVariableValue function will return 0 for now to allow the plugin to finish, then EnergyPlus will abort
   ** Severe  ** Data Exchange API: Index error in getVariableValue; received handle: -1
   **   ~~~   ** The getVariableValue function will return 0 for now to allow the plugin to finish, then EnergyPlus will abort
   ** Severe  ** Data Exchange API: Index error in getVariableValue; received handle: -1
   **   ~~~   ** The getVariableValue function will return 0 for now to allow the plugin to finish, then EnergyPlus will abort
   ** Severe  ** Data Exchange API: Index error in getVariableValue; received handle: -1
   **   ~~~   ** The getVariableValue function will return 0 for now to allow the plugin to finish, then EnergyPlus will abort
   ** Severe  ** Data Exchange API: Index error in getVariableValue; received handle: -1
   **   ~~~   ** The getVariableValue function will return 0 for now to allow the plugin to finish, then EnergyPlus will abort
   ** Severe  ** Data Exchange API: Index error in getVariableValue; received handle: -1
   **   ~~~   ** The getVariableValue function will return 0 for now to allow the plugin to finish, then EnergyPlus will abort
   ** Severe  ** Data Exchange API: Index error in getVariableValue; received handle: -1
[...]
   ** Severe  ** Data Exchange API: Index error in getVariableValue; received handle: -1
   **   ~~~   ** The getVariableValue function will return 0 for now to allow the plugin to finish, then EnergyPlus will abort
   ** Severe  ** Data Exchange API: Index error in getVariableValue; received handle: -1
   **   ~~~   ** The getVariableValue function will return 0 for now to allow the plugin to finish, then EnergyPlus will abort
   ** Severe  ** Data Exchange API: Index error in getVariableValue; received handle: -1
   **   ~~~   ** The getVariableValue function will return 0 for now to allow the plugin to finish, then EnergyPlus will abort
   ** Severe  ** Data Exchange API: Index error in getVariableValue; received handle: -1
   **   ~~~   ** The getVariableValue function will return 0 for now to allow the plugin to finish, then EnergyPlus will abort
   ** Severe  ** Data Exchange API: Index error in getVariableValue; received handle: -1
   **   ~~~   ** The getVariableValue function will return 0 for now to allow the plugin to finish, then EnergyPlus will abort
   ** Severe  ** Data Exchange API: Index error in getVariableValue; received handle: -1
   **   ~~~   ** The getVariableValue function will return 0 for now to allow the plugin to finish, then EnergyPlus will abort
   ** Severe  ** Data Exchange API: Index error in getVariableValue; received handle: -1
   **   ~~~   ** The getVariableValue function will return 0 for now to allow the plugin to finish, then EnergyPlus will abort
   ** Severe  ** Data Exchange API: Index error in getVariableValue; received handle: -1
   **   ~~~   ** The getVariableValue function will return 0 for now to allow the plugin to finish, then EnergyPlus will abort
   ** Severe  ** Data Exchange API: Index error in getVariableValue; received handle: -1
   **   ~~~   ** The getVariableValue function will return 0 for now to allow the plugin to finish, then EnergyPlus will abort
   ** Severe  ** Data Exchange API: Index error in getVariableValue; received handle: -1
   **   ~~~   ** The getVariableValue function will return 0 for now to allow the plugin to finish, then EnergyPlus will abort
   ** Severe  ** Data Exchange API: Index error in getVariableValue; received handle: -1
   **   ~~~   ** The getVariableValue function will return 0 for now to allow the plugin to finish, then EnergyPlus will abort
   ** Severe  ** Data Exchange API: Index error in getVariableValue; received handle: -1
   **   ~~~   ** The getVariableValue function will return 0 for now to allow the plugin to finish, then EnergyPlus will abort
   ** Severe  ** Data Exchange API: Index error in getVariableValue; received handle: -1
   **   ~~~   ** The getVariableValue function will return 0 for now to allow the plugin to finish, then EnergyPlus will abort
   ** Severe  ** Data Exchange API: Index error in getVariableValue; received handle: -1
   **   ~~~   ** The getVariableValue function will return 0 for now to allow the plugin to finish, then EnergyPlus will abort
   ** Severe  ** Data Exchange API: Index error in getVariableValue; received handle: -1
   **   ~~~   ** The getVariableValue function will return 0 for now to allow the plugin to finish, then EnergyPlus will abort
   ** Severe  ** Data Exchange API: Index error in getVariableValue; received handle: -1
   **   ~~~   ** The getVariableValue function will return 0 for now to allow the plugin to finish, then EnergyPlus will abort
   ** Severe  ** Data Exchange API: Index error in getVariableValue; received handle: -1
   **   ~~~   ** The getVariableValue function will return 0 for now to allow the plugin to finish, then EnergyPlus will abort
   ** Severe  ** Data Exchange API: Index error in getVariableValue; received handle: -1
   **   ~~~   ** The getVariableValue function will return 0 for now to allow the plugin to finish, then EnergyPlus will abort
   ** Severe  ** Data Exchange API: Index error in getVariableValue; received handle: -1
   **   ~~~   ** The getVariableValue function will return 0 for now to allow the plugin to finish, then EnergyPlus will abort
   ** Severe  ** Data Exchange API: Index error in getVariableValue; received handle: -1
   **   ~~~   ** The getVariableValue function will return 0 for now to allow the plugin to finish, then EnergyPlus will abort
   ** Severe  ** Data Exchange API: Index error in getVariableValue; received handle: -1
   **   ~~~   ** The getVariableValue function will return 0 for now to allow the plugin to finish, then EnergyPlus will abort
   ** Severe  ** Data Exchange API: Index error in getVariableValue; received handle: -1
   **   ~~~   ** The getVariableValue function will return 0 for now to allow the plugin to finish, then EnergyPlus will abort
   ** Severe  ** Data Exchange API: Index error in getVariableValue; received handle: -1
   **   ~~~   ** The getVariableValue function will return 0 for now to allow the plugin to finish, then EnergyPlus will abort
   ************* Beginning System Sizing Calculations
   ************* Beginning Plant Sizing Calculations
   ************* Testing Individual Branch Integrity
   ************* All Branches passed integrity testing
   ************* Testing Individual Supply Air Path Integrity
   ************* All Supply Air Paths passed integrity testing
   ************* Testing Individual Return Air Path Integrity
   ************* All Return Air Paths passed integrity testing
   ************* No node connection errors were found.
   ************* Beginning Simulation
   ** Severe  ** Data Exchange API: Index error in getVariableValue; received handle: -1
   **   ~~~   ** The getVariableValue function will return 0 for now to allow the plugin to finish, then EnergyPlus will abort
   ** Severe  ** Data Exchange API: Index error in getVariableValue; received handle: -1
   **   ~~~   ** The getVariableValue function will return 0 for now to allow the plugin to finish, then EnergyPlus will abort
   ** Severe  ** Data Exchange API: Index error in getVariableValue; received handle: -1
   **   ~~~   ** The getVariableValue function will return 0 for now to allow the plugin to finish, then EnergyPlus will abort
   ** Severe  ** Data Exchange API: Index error in getVariableValue; received handle: -1
   **   ~~~   ** The getVariableValue function will return 0 for now to allow the plugin to finish, then EnergyPlus will abort
   ** Severe  ** Data Exchange API: Index error in getVariableValue; received handle: -1
   **   ~~~   ** The getVariableValue function will return 0 for now to allow the plugin to finish, then EnergyPlus will abort
   ** Severe  ** Data Exchange API: Index error in getVariableValue; received handle: -1
   **   ~~~   ** The getVariableValue function will return 0 for now to allow the plugin to finish, then EnergyPlus will abort
   ** Severe  ** Data Exchange API: Index error in getVariableValue; received handle: -1
   **   ~~~   ** The getVariableValue function will return 0 for now to allow the plugin to finish, then EnergyPlus will abort
   ** Severe  ** Data Exchange API: Index error in getVariableValue; received handle: -1
   **   ~~~   ** The getVariableValue function will return 0 for now to allow the plugin to finish, then EnergyPlus will abort
   ** Severe  ** Data Exchange API: Index error in getVariableValue; received handle: -1
   **   ~~~   ** The getVariableValue function will return 0 for now to allow the plugin to finish, then EnergyPlus will abort
   ** Severe  ** Data Exchange API: Index error in getVariableValue; received handle: -1
   **   ~~~   ** The getVariableValue function will return 0 for now to allow the plugin to finish, then EnergyPlus will abort
   ** Severe  ** Data Exchange API: Index error in getVariableValue; received handle: -1
   **   ~~~   ** The getVariableValue function will return 0 for now to allow the plugin to finish, then EnergyPlus will abort
   ** Severe  ** Data Exchange API: Index error in getVariableValue; received handle: -1
   **   ~~~   ** The getVariableValue function will return 0 for now to allow the plugin to finish, then EnergyPlus will abort
   ** Severe  ** Data Exchange API: Index error in getVariableValue; received handle: -1
   **   ~~~   ** The getVariableValue function will return 0 for now to allow the plugin to finish, then EnergyPlus will abort
   ** Severe  ** Data Exchange API: Index error in getVariableValue; received handle: -1
   **   ~~~   ** The getVariableValue function will return 0 for now to allow the plugin to finish, then EnergyPlus will abort
   ** Severe  ** Data Exchange API: Index error in getVariableValue; received handle: -1
   **   ~~~   ** The getVariableValue function will return 0 for now to allow the plugin to finish, then EnergyPlus will abort
   ** Severe  ** Data Exchange API: Index error in getVariableValue; received handle: -1
   **   ~~~   ** The getVariableValue function will return 0 for now to allow the plugin to finish, then EnergyPlus will abort
   ** Severe  ** Data Exchange API: Index error in getVariableValue; received handle: -1
   **   ~~~   ** The getVariableValue function will return 0 for now to allow the plugin to finish, then EnergyPlus will abort
   ** Severe  ** Data Exchange API: Index error in getVariableValue; received handle: -1
   **   ~~~   ** The getVariableValue function will return 0 for now to allow the plugin to finish, then EnergyPlus will abort
   ** Severe  ** Data Exchange API: Index error in getVariableValue; received handle: -1
   **   ~~~   ** The getVariableValue function will return 0 for now to allow the plugin to finish, then EnergyPlus will abort
   ** Severe  ** Data Exchange API: Index error in getVariableValue; received handle: -1
   **   ~~~   ** The getVariableValue function will return 0 for now to allow the plugin to finish, then EnergyPlus will abort
   ** Severe  ** Data Exchange API: Index error in getVariableValue; received handle: -1
   **   ~~~   ** The getVariableValue function will return 0 for now to allow the plugin to finish, then EnergyPlus will abort
   ** Severe  ** Data Exchange API: Index error in getVariableValue; received handle: -1
   **   ~~~   ** The getVariableValue function will return 0 for now to allow the plugin to finish, then EnergyPlus will abort
   ** Severe  ** Data Exchange API: Index error in getVariableValue; received handle: -1
   **   ~~~   ** The getVariableValue function will return 0 for now to allow the plugin to finish, then EnergyPlus will abort
   ** Severe  ** Data Exchange API: Index error in getVariableValue; received handle: -1
   **   ~~~   ** The getVariableValue function will return 0 for now to allow the plugin to finish, then EnergyPlus will abort
   ** Severe  ** Data Exchange API: Index error in getVariableValue; received handle: -1
   **   ~~~   ** The getVariableValue function will return 0 for now to allow the plugin to finish, then EnergyPlus will abort
   ** Severe  ** Data Exchange API: Index error in getVariableValue; received handle: -1
   **   ~~~   ** The getVariableValue function will return 0 for now to allow the plugin to finish, then EnergyPlus will abort
   ** Severe  ** Data Exchange API: Index error in getVariableValue; received handle: -1
   **   ~~~   ** The getVariableValue function will return 0 for now to allow the plugin to finish, then EnergyPlus will abort
   ** Severe  ** Data Exchange API: Index error in getVariableValue; received handle: -1
   **   ~~~   ** The getVariableValue function will return 0 for now to allow the plugin to finish, then EnergyPlus will abort
   ** Severe  ** Data Exchange API: Index error in getVariableValue; received handle: -1
   **   ~~~   ** The getVariableValue function will return 0 for now to allow the plugin to finish, then EnergyPlus will abort
   ** Severe  ** Data Exchange API: Index error in getVariableValue; received handle: -1
   **   ~~~   ** The getVariableValue function will return 0 for now to allow the plugin to finish, then EnergyPlus will abort
   ** Severe  ** Data Exchange API: Index error in getVariableValue; received handle: -1
   **   ~~~   ** The getVariableValue function will return 0 for now to allow the plugin to finish, then EnergyPlus will abort
   ** Severe  ** Data Exchange API: Index error in getVariableValue; received handle: -1
   **   ~~~   ** The getVariableValue function will return 0 for now to allow the plugin to finish, then EnergyPlus will abort
   ** Severe  ** Data Exchange API: Index error in getVariableValue; received handle: -1
   **   ~~~   ** The getVariableValue function will return 0 for now to allow the plugin to finish, then EnergyPlus will abort
   ** Severe  ** Data Exchange API: Index error in getVariableValue; received handle: -1
   **   ~~~   ** The getVariableValue function will return 0 for now to allow the plugin to finish, then EnergyPlus will abort
   ** Severe  ** Data Exchange API: Index error in getVariableValue; received handle: -1
   **   ~~~   ** The getVariableValue function will return 0 for now to allow the plugin to finish, then EnergyPlus will abort
   ** Severe  ** Data Exchange API: Index error in getVariableValue; received handle: -1
   **   ~~~   ** The getVariableValue function will return 0 for now to allow the plugin to finish, then EnergyPlus will abort
   ** Severe  ** Data Exchange API: Index error in getVariableValue; received handle: -1
   **   ~~~   ** The getVariableValue function will return 0 for now to allow the plugin to finish, then EnergyPlus will abort
   ** Severe  ** Data Exchange API: Index error in getVariableValue; received handle: -1
   **   ~~~   ** The getVariableValue function will return 0 for now to allow the plugin to finish, then EnergyPlus will abort
   ** Severe  ** Data Exchange API: Index error in getVariableValue; received handle: -1
   **   ~~~   ** The getVariableValue function will return 0 for now to allow the plugin to finish, then EnergyPlus will abort
   ** Severe  ** Data Exchange API: Index error in getVariableValue; received handle: -1
   **   ~~~   ** The getVariableValue function will return 0 for now to allow the plugin to finish, then EnergyPlus will abort
   ** Severe  ** Data Exchange API: Index error in getVariableValue; received handle: -1
   **   ~~~   ** The getVariableValue function will return 0 for now to allow the plugin to finish, then EnergyPlus will abort
   ** Severe  ** Data Exchange API: Index error in getVariableValue; received handle: -1
   **   ~~~   ** The getVariableValue function will return 0 for now to allow the plugin to finish, then EnergyPlus will abort
   ** Severe  ** Data Exchange API: Index error in getVariableValue; received handle: -1
   **   ~~~   ** The getVariableValue function will return 0 for now to allow the plugin to finish, then EnergyPlus will abort
   ** Severe  ** Data Exchange API: Index error in getVariableValue; received handle: -1
   **   ~~~   ** The getVariableValue function will return 0 for now to allow the plugin to finish, then EnergyPlus will abort
   ** Severe  ** Data Exchange API: Index error in getVariableValue; received handle: -1
   **   ~~~   ** The getVariableValue function will return 0 for now to allow the plugin to finish, then EnergyPlus will abort
   ** Severe  ** Data Exchange API: Index error in getVariableValue; received handle: -1
   **   ~~~   ** The getVariableValue function will return 0 for now to allow the plugin to finish, then EnergyPlus will abort
   ** Severe  ** Data Exchange API: Index error in getVariableValue; received handle: -1
   **   ~~~   ** The getVariableValue function will return 0 for now to allow the plugin to finish, then EnergyPlus will abort
   ** Severe  ** Data Exchange API: Index error in getVariableValue; received handle: -1
   **   ~~~   ** The getVariableValue function will return 0 for now to allow the plugin to finish, then EnergyPlus will abort
   ** Severe  ** Data Exchange API: Index error in getVariableValue; received handle: -1
   **   ~~~   ** The getVariableValue function will return 0 for now to allow the plugin to finish, then EnergyPlus will abort
   ** Severe  ** Data Exchange API: Index error in getVariableValue; received handle: -1
   **   ~~~   ** The getVariableValue function will return 0 for now to allow the plugin to finish, then EnergyPlus will abort
   ** Severe  ** Data Exchange API: Index error in getVariableValue; received handle: -1
   **   ~~~   ** The getVariableValue function will return 0 for now to allow the plugin to finish, then EnergyPlus will abort
   ** Severe  ** Data Exchange API: Index error in getVariableValue; received handle: -1
   **   ~~~   ** The getVariableValue function will return 0 for now to allow the plugin to finish, then EnergyPlus will abort
   ** Severe  ** Data Exchange API: Index error in getVariableValue; received handle: -1
   **   ~~~   ** The getVariableValue function will return 0 for now to allow the plugin to finish, then EnergyPlus will abort
   ** Severe  ** Data Exchange API: Index error in getVariableValue; received handle: -1
   **   ~~~   ** The getVariableValue function will return 0 for now to allow the plugin to finish, then EnergyPlus will abort
   ** Severe  ** Data Exchange API: Index error in getVariableValue; received handle: -1
   **   ~~~   ** The getVariableValue function will return 0 for now to allow the plugin to finish, then EnergyPlus will abort
   ** Severe  ** Data Exchange API: Index error in getVariableValue; received handle: -1
   **   ~~~   ** The getVariableValue function will return 0 for now to allow the plugin to finish, then EnergyPlus will abort
   ** Severe  ** DualSetPointWithDeadBand: Effective heating set-point higher than effective cooling set-point - increase deadband if using unmixed air model
   **   ~~~   ** occurs in Zone=SPACE1-1 During Warmup, Environment=RUN PERIOD 1, at Simulation time=01/01 06:45 - 07:00
   **   ~~~   ** LoadToHeatingSetPoint=7167.982, LoadToCoolingSetPoint=5448.648
   **   ~~~   ** Zone TempDepZnLd=1563.03
   **   ~~~   ** Zone TempIndZnLd=31907.78
   **   ~~~   ** Zone Heating ThermostatSetPoint=25.00
   **   ~~~   ** Zone Cooling ThermostatSetPoint=23.90
   **  Fatal  ** Program terminates due to above conditions.
   ...Summary of Errors that led to program termination:
   ..... Reference severe error count=12766
   ..... Last severe error=DualSetPointWithDeadBand: Effective heating set-point higher than effective cooling set-point - increase deadband if using unmixed air model
   *************
   ************* ===== Final Error Summary =====
   ************* The following error categories occurred.  Consider correcting or noting.
   ************* Loads Initialization did not Converge
   ************* ..1) very high thermal mass such as very thick concrete (solution: increase max number of warmup
   ************* ..   days in the BUILDING object);
   ************* ..2) moderate mass and inadequate space conditioning such that the building keeps getting warmer
   ************* ..   and warmer on successive days (solution: add HVAC, check building thermal properties,
   ************* ..   check if infiltration is included, make sure HVAC properly controlled);
   ************* ..3) a soil layer modeled below the concrete slab - (solution remove this layer and read about
   ************* ..   ground temperatures in the Auxiliary Programs document).
   ************* ..4) unreasonable (too small) limits in the BUILDING object for temperature (.4 default) or
   ************* ..   loads tolerances (.04 default)
   *************
   ************* EnergyPlus Warmup Error Summary. During Warmup: 0 Warning; 57 Severe Errors.
   ************* EnergyPlus Sizing Error Summary. During Sizing: 1 Warning; 12709 Severe Errors.
   ************* EnergyPlus Terminated--Fatal Error Detected. 1 Warning; 12766 Severe Errors; Elapsed Time=00hr 00min 41.65sec
