Program Version,EnergyPlus, Version 24.1.0-9d7789a3ac, YMD=2026.01.18 13:27,
   ************* Beginning Zone Sizing Calculations
   ** Warning ** Weather file location will be used rather than entered (IDF) Location object.
   **   ~~~   ** ..Location object=CHICAGO_IL_USA TMY2-94846
   **   ~~~   ** ..Weather File Location=Rabat-Sale.AP RK MAR SRC-TMYx WMO#=601350
   **   ~~~   ** ..due to location differences, Latitude difference=[7.73] degrees, Longitude difference=[81.00] degrees.
   **   ~~~   ** ..Time Zone difference=[7.0] hour(s), Elevation difference=[55.74] percent, [105.90] meters.
   ************* Beginning System Sizing Calculations
   ************* Beginning Plant Sizing Calculations
   ************* Testing Individual Branch Integrity
   ************* All Branches passed integrity testing
   ************* Testing Individual Supply Air Path Integrity
   ************* All Supply Air Paths passed integrity testing
   ************* Testing Individual Return Air Path Integrity
   ************* All Return Air Paths passed integrity testing
   ************* No node connection errors were found.
   ************* Beginning Simulation
   ** Severe  ** DualSetPointWithDeadBand: Effective heating set-point higher than effective cooling set-point - increase deadband if using unmixed air model
   **   ~~~   ** occurs in Zone=SPACE1-1 During Warmup, Environment=RUN PERIOD 1, at Simulation time=01/01 08:30 - 08:45
   **   ~~~   ** LoadToHeatingSetPoint=4246.098, LoadToCoolingSetPoint=4090.798
   **   ~~~   ** Zone TempDepZnLd=1553.00
   **   ~~~   ** Zone TempIndZnLd=33025.88
   **   ~~~   ** Zone Heating ThermostatSetPoint=24.00
   **   ~~~   ** Zone Cooling ThermostatSetPoint=23.90
   **  Fatal  ** Program terminates due to above conditions.
   ...Summary of Errors that led to program termination:
   ..... Reference severe error count=1
   ..... Last severe error=DualSetPointWithDeadBand: Effective heating set-point higher than effective cooling set-point - increase deadband if using unmixed air model
   ************* EnergyPlus Warmup Error Summary. During Warmup: 0 Warning; 1 Severe Errors.
   ************* EnergyPlus Sizing Error Summary. During Sizing: 1 Warning; 0 Severe Errors.
   ************* EnergyPlus Terminated--Fatal Error Detected. 1 Warning; 1 Severe Errors; Elapsed Time=00hr 00min  0.57sec
