Program Version,EnergyPlus, Version 24.1.0-9d7789a3ac, YMD=2026.01.18 13:15
