Program Version,EnergyPlus, Version 24.1.0-9d7789a3ac, YMD=2026.01.18 13:15,
   **  Fatal  ** OpenOutputFiles: Could not open file results\ep_out_64_1768742145\eplusout.bnd for output (write).
   ...Summary of Errors that led to program termination:
   ..... Reference severe error count=0
   ..... Last severe error=
   ************* Warning:  Node connection errors not checked - most system input has not been read (see previous warning).
   ************* Fatal error -- final processing.  Program exited before simulations began.  See previous error messages.
   ************* EnergyPlus Warmup Error Summary. During Warmup: 0 Warning; 0 Severe Errors.
   ************* EnergyPlus Sizing Error Summary. During Sizing: 0 Warning; 0 Severe Errors.
   ************* EnergyPlus Terminated--Fatal Error Detected. 0 Warning; 0 Severe Errors; Elapsed Time=00hr 00min  0.06sec
